0CZ
  CCTOOLS-0817121038

 33 34  0  0  0  0  0  0  0  0999 V2000
    2.2050    0.1030    0.9320 C   0  0  0  0  0
    3.3330    0.8990    0.8990 C   0  0  0  0  0
    3.4880    1.8390   -0.1100 C   0  0  0  0  0
    4.5980    2.6230   -0.1460 O   0  0  0  0  0
    2.5090    1.9770   -1.0830 C   0  0  0  0  0
    1.3820    1.1780   -1.0450 C   0  0  0  0  0
    1.2300    0.2430   -0.0390 C   0  0  0  0  0
   -0.0000   -0.6270   -0.0000 C   0  0  0  0  0
   -0.0390   -1.5110   -1.2480 C   0  0  0  0  0
   -1.1810   -2.3180   -1.2130 F   0  0  0  0  0
   -0.0750   -0.7030   -2.3900 F   0  0  0  0  0
    1.1020   -2.3190   -1.2840 F   0  0  0  0  0
    0.0390   -1.5100    1.2490 C   0  0  0  0  0
    1.1810   -2.3180    1.2130 F   0  0  0  0  0
    0.0750   -0.7020    2.3900 F   0  0  0  0  0
   -1.1030   -2.3180    1.2850 F   0  0  0  0  0
   -1.2300    0.2430    0.0380 C   0  0  0  0  0
   -2.2060    0.1010   -0.9300 C   0  0  0  0  0
   -3.3340    0.8980   -0.8970 C   0  0  0  0  0
   -3.4870    1.8400    0.1090 C   0  0  0  0  0
   -4.5970    2.6240    0.1450 O   0  0  0  0  0
   -2.5070    1.9800    1.0800 C   0  0  0  0  0
   -1.3820    1.1780    1.0460 C   0  0  0  0  0
    2.0860   -0.6320    1.7150 H   0  0  0  0  0
    4.0940    0.7900    1.6570 H   0  0  0  0  0
    5.3290    2.2470   -0.6540 H   0  0  0  0  0
    2.6270    2.7080   -1.8690 H   0  0  0  0  0
    0.6190    1.2850   -1.8020 H   0  0  0  0  0
   -2.0860   -0.6320   -1.7140 H   0  0  0  0  0
   -4.0970    0.7870   -1.6540 H   0  0  0  0  0
   -5.3270    2.2500    0.6560 H   0  0  0  0  0
   -2.6230    2.7130    1.8650 H   0  0  0  0  0
   -0.6200    1.2840    1.8030 H   0  0  0  0  0
  1  7  2  0  0  0
  1  2  1  0  0  0
  1 24  1  0  0  0
  2  3  2  0  0  0
  2 25  1  0  0  0
  3  5  1  0  0  0
  3  4  1  0  0  0
  4 26  1  0  0  0
  5 27  1  0  0  0
  6  5  2  0  0  0
  6 28  1  0  0  0
  7  6  1  0  0  0
  8 13  1  0  0  0
  8 17  1  0  0  0
  8  7  1  0  0  0
  9  8  1  0  0  0
 10  9  1  0  0  0
 11  9  1  0  0  0
 12  9  1  0  0  0
 13 16  1  0  0  0
 14 13  1  0  0  0
 15 13  1  0  0  0
 17 23  2  0  0  0
 18 19  2  0  0  0
 18 17  1  0  0  0
 18 29  1  0  0  0
 19 20  1  0  0  0
 19 30  1  0  0  0
 20 21  1  0  0  0
 20 22  2  0  0  0
 21 31  1  0  0  0
 22 32  1  0  0  0
 23 22  1  0  0  0
 23 33  1  0  0  0
M  END
$$$$
