REMARK  6 active torsions:
REMARK  status: ('A' for Active; 'I' for Inactive)
REMARK    1  A    between atoms: C_3  and  O_4 
REMARK    2  A    between atoms: C_8  and  C_7 
REMARK    3  A    between atoms: C_8  and  C_13 
REMARK    4  A    between atoms: C_8  and  C_17 
REMARK    5  A    between atoms: C_9  and  C_8 
REMARK    6  A    between atoms: C_20  and  O_21 
ROOT
ATOM      1  C   LIG d   1      -0.000  -0.627  -0.000  0.00  0.00     0.208 C 
ENDROOT
BRANCH   1   2
ATOM      2  C   LIG d   1       0.039  -1.510   1.249  0.00  0.00     0.412 C 
ATOM      3  F   LIG d   1      -1.103  -2.318   1.285  0.00  0.00    -0.169 F 
ATOM      4  F   LIG d   1       1.181  -2.318   1.213  0.00  0.00    -0.169 F 
ATOM      5  F   LIG d   1       0.075  -0.702   2.390  0.00  0.00    -0.169 F 
ENDBRANCH   1   2
BRANCH   1   6
ATOM      6  C   LIG d   1      -1.230   0.243   0.038  0.00  0.00    -0.027 A 
ATOM      7  C   LIG d   1      -1.382   1.178   1.046  0.00  0.00    -0.073 A 
ATOM      8  C   LIG d   1      -2.507   1.980   1.080  0.00  0.00    -0.051 A 
ATOM      9  H   LIG d   1      -0.656   1.277   1.772  0.00  0.00     0.084 H 
ATOM     10  C   LIG d   1      -3.487   1.840   0.109  0.00  0.00     0.065 A 
ATOM     11  H   LIG d   1      -2.618   2.683   1.828  0.00  0.00     0.087 H 
ATOM     12  C   LIG d   1      -3.334   0.898  -0.897  0.00  0.00    -0.051 A 
ATOM     13  C   LIG d   1      -2.206   0.101  -0.930  0.00  0.00    -0.073 A 
ATOM     14  H   LIG d   1      -4.062   0.792  -1.621  0.00  0.00     0.087 H 
ATOM     15  H   LIG d   1      -2.092  -0.601  -1.678  0.00  0.00     0.084 H 
BRANCH  10  16
ATOM     16  O   LIG d   1      -4.597   2.624   0.145  0.00  0.00    -0.361 OA
ATOM     17  H   LIG d   1      -5.259   2.529  -0.511  0.00  0.00     0.217 HD
ENDBRANCH  10  16
ENDBRANCH   1   6
BRANCH   1  18
ATOM     18  C   LIG d   1       1.230   0.243  -0.039  0.00  0.00    -0.027 A 
ATOM     19  C   LIG d   1       2.205   0.103   0.932  0.00  0.00    -0.073 A 
ATOM     20  C   LIG d   1       3.333   0.899   0.899  0.00  0.00    -0.051 A 
ATOM     21  H   LIG d   1       2.089  -0.597   1.682  0.00  0.00     0.084 H 
ATOM     22  C   LIG d   1       3.488   1.839  -0.110  0.00  0.00     0.065 A 
ATOM     23  H   LIG d   1       4.060   0.795   1.624  0.00  0.00     0.087 H 
ATOM     24  C   LIG d   1       2.509   1.977  -1.083  0.00  0.00    -0.051 A 
ATOM     25  C   LIG d   1       1.382   1.178  -1.045  0.00  0.00    -0.073 A 
ATOM     26  H   LIG d   1       2.622   2.675  -1.834  0.00  0.00     0.087 H 
ATOM     27  H   LIG d   1       0.653   1.280  -1.769  0.00  0.00     0.084 H 
BRANCH  22  28
ATOM     28  O   LIG d   1       4.598   2.623  -0.146  0.00  0.00    -0.361 OA
ATOM     29  H   LIG d   1       5.259   2.530   0.511  0.00  0.00     0.217 HD
ENDBRANCH  22  28
ENDBRANCH   1  18
BRANCH   1  30
ATOM     30  C   LIG d   1      -0.039  -1.511  -1.248  0.00  0.00     0.412 C 
ATOM     31  F   LIG d   1      -1.181  -2.318  -1.213  0.00  0.00    -0.169 F 
ATOM     32  F   LIG d   1      -0.075  -0.703  -2.390  0.00  0.00    -0.169 F 
ATOM     33  F   LIG d   1       1.102  -2.319  -1.284  0.00  0.00    -0.169 F 
ENDBRANCH   1  30
TORSDOF 6
