@<TRIPOS>MOLECULE
0CZ
 33 34 0 0 0
SMALL
GASTEIGER

@<TRIPOS>ATOM
      1 C           2.2050    0.1030    0.9320 C.ar    1  LIG1       -0.0537
      2 C           3.3330    0.8990    0.8990 C.ar    1  LIG1       -0.0199
      3 C           3.4880    1.8390   -0.1100 C.ar    1  LIG1        0.1169
      4 O           4.5980    2.6230   -0.1460 O.3     1  LIG1       -0.5068
      5 C           2.5090    1.9770   -1.0830 C.ar    1  LIG1       -0.0199
      6 C           1.3820    1.1780   -1.0450 C.ar    1  LIG1       -0.0537
      7 C           1.2300    0.2430   -0.0390 C.ar    1  LIG1       -0.0196
      8 C          -0.0000   -0.6270   -0.0000 C.3     1  LIG1        0.2095
      9 C          -0.0390   -1.5110   -1.2480 C.3     1  LIG1        0.4117
     10 F          -1.1810   -2.3180   -1.2130 F       1  LIG1       -0.1690
     11 F          -0.0750   -0.7030   -2.3900 F       1  LIG1       -0.1690
     12 F           1.1020   -2.3190   -1.2840 F       1  LIG1       -0.1690
     13 C           0.0390   -1.5100    1.2490 C.3     1  LIG1        0.4117
     14 F           1.1810   -2.3180    1.2130 F       1  LIG1       -0.1690
     15 F           0.0750   -0.7020    2.3900 F       1  LIG1       -0.1690
     16 F          -1.1030   -2.3180    1.2850 F       1  LIG1       -0.1690
     17 C          -1.2300    0.2430    0.0380 C.ar    1  LIG1       -0.0196
     18 C          -2.2060    0.1010   -0.9300 C.ar    1  LIG1       -0.0537
     19 C          -3.3340    0.8980   -0.8970 C.ar    1  LIG1       -0.0199
     20 C          -3.4870    1.8400    0.1090 C.ar    1  LIG1        0.1169
     21 O          -4.5970    2.6240    0.1450 O.3     1  LIG1       -0.5068
     22 C          -2.5070    1.9800    1.0800 C.ar    1  LIG1       -0.0199
     23 C          -1.3820    1.1780    1.0460 C.ar    1  LIG1       -0.0537
     24 H           2.0894   -0.5968    1.6817 H       1  LIG1        0.0622
     25 H           4.0600    0.7949    1.6240 H       1  LIG1        0.0654
     26 H           5.2591    2.5295    0.5114 H       1  LIG1        0.2921
     27 H           2.6221    2.6754   -1.8343 H       1  LIG1        0.0654
     28 H           0.6533    1.2798   -1.7686 H       1  LIG1        0.0622
     29 H          -2.0922   -0.6008   -1.6780 H       1  LIG1        0.0622
     30 H          -4.0622    0.7923   -1.6206 H       1  LIG1        0.0654
     31 H          -5.2590    2.5292   -0.5113 H       1  LIG1        0.2921
     32 H          -2.6177    2.6827    1.8276 H       1  LIG1        0.0654
     33 H          -0.6556    1.2767    1.7724 H       1  LIG1        0.0622
@<TRIPOS>BOND
     1     1     7   ar
     2     1     2   ar
     3     2     3   ar
     4     3     5   ar
     5     3     4    1
     6     6     5   ar
     7     7     6   ar
     8     8    13    1
     9     8    17    1
    10     8     7    1
    11     9     8    1
    12    10     9    1
    13    11     9    1
    14    12     9    1
    15    13    16    1
    16    14    13    1
    17    15    13    1
    18    17    23   ar
    19    18    19   ar
    20    18    17   ar
    21    19    20   ar
    22    20    21    1
    23    20    22   ar
    24    23    22   ar
    25     1    24    1
    26     2    25    1
    27     4    26    1
    28     5    27    1
    29     6    28    1
    30    18    29    1
    31    19    30    1
    32    21    31    1
    33    22    32    1
    34    23    33    1
