REMARK  4 active torsions:
REMARK  status: ('A' for Active; 'I' for Inactive)
REMARK    1  A    between atoms: C_1  and  C_2 
REMARK    2  A    between atoms: C_9  and  O_10 
REMARK    3  A    between atoms: C_19  and  C_20 
REMARK    4  A    between atoms: C_19  and  O_21 
ROOT
ATOM      1  C   LIG d   1       2.251   0.469   0.105  0.00  0.00    -0.005 C 
ATOM      2  C   LIG d   1       1.700   1.637  -0.678  0.00  0.00    -0.051 C 
ATOM      3  C   LIG d   1       0.193   1.707  -0.401  0.00  0.00    -0.039 C 
ATOM      4  C   LIG d   1      -0.461   0.353  -0.331  0.00  0.00    -0.040 A 
ATOM      5  C   LIG d   1      -1.866   0.319  -0.178  0.00  0.00    -0.019 A 
ATOM      6  C   LIG d   1      -2.608   1.513  -0.151  0.00  0.00    -0.069 A 
ATOM      7  C   LIG d   1      -3.958   1.464   0.007  0.00  0.00    -0.050 A 
ATOM      8  C   LIG d   1      -4.622   0.241   0.141  0.00  0.00     0.066 A 
ATOM      9  C   LIG d   1      -3.932  -0.937   0.117  0.00  0.00    -0.040 A 
ATOM     10  C   LIG d   1      -2.537  -0.920  -0.046  0.00  0.00    -0.023 A 
ATOM     11  C   LIG d   1      -1.793  -2.112  -0.078  0.00  0.00    -0.072 A 
ATOM     12  C   LIG d   1      -0.447  -2.050  -0.245  0.00  0.00    -0.075 A 
ATOM     13  C   LIG d   1       0.218  -0.830  -0.379  0.00  0.00    -0.046 A 
ATOM     14  C   LIG d   1       1.696  -0.812  -0.578  0.00  0.00    -0.018 C 
ATOM     15  C   LIG d   1       2.509  -1.908   0.112  0.00  0.00    -0.054 C 
ATOM     16  C   LIG d   1       3.938  -1.298   0.158  0.00  0.00    -0.035 C 
ATOM     17  C   LIG d   1       3.757   0.241   0.087  0.00  0.00     0.062 C 
ATOM     18  H   LIG d   1       1.873   1.490  -1.724  0.00  0.00     0.034 H 
ATOM     19  H   LIG d   1       2.180   2.547  -0.385  0.00  0.00     0.034 H 
ATOM     20  H   LIG d   1      -0.271   2.269  -1.185  0.00  0.00     0.040 H 
ATOM     21  H   LIG d   1       0.067   2.171   0.555  0.00  0.00     0.040 H 
ATOM     22  H   LIG d   1      -2.130   2.422  -0.251  0.00  0.00     0.085 H 
ATOM     23  H   LIG d   1      -4.500   2.342   0.028  0.00  0.00     0.087 H 
ATOM     24  H   LIG d   1      -4.432  -1.834   0.218  0.00  0.00     0.089 H 
ATOM     25  H   LIG d   1      -2.265  -3.024   0.024  0.00  0.00     0.084 H 
ATOM     26  H   LIG d   1       0.098  -2.926  -0.274  0.00  0.00     0.084 H 
ATOM     27  H   LIG d   1       1.802  -0.911  -1.638  0.00  0.00     0.048 H 
ATOM     28  H   LIG d   1       2.495  -2.814  -0.457  0.00  0.00     0.034 H 
ATOM     29  H   LIG d   1       2.130  -2.173   1.077  0.00  0.00     0.034 H 
ATOM     30  H   LIG d   1       4.515  -1.642  -0.675  0.00  0.00     0.037 H 
ATOM     31  H   LIG d   1       4.456  -1.588   1.048  0.00  0.00     0.037 H 
ENDROOT
BRANCH  17  32
ATOM     32  C   LIG d   1       4.409   0.908   1.300  0.00  0.00    -0.047 C 
ATOM     33  H   LIG d   1       3.977   0.517   2.197  0.00  0.00     0.031 H 
ATOM     34  H   LIG d   1       4.246   1.965   1.257  0.00  0.00     0.031 H 
ATOM     35  H   LIG d   1       5.460   0.709   1.294  0.00  0.00     0.031 H 
ENDBRANCH  17  32
BRANCH  17  36
ATOM     36  O   LIG d   1       4.322   0.751  -1.122  0.00  0.00    -0.389 OA
ATOM     37  H   LIG d   1       3.901   0.321  -1.883  0.00  0.00     0.210 HD
ENDBRANCH  17  36
BRANCH   1  38
ATOM     38  C   LIG d   1       1.753   0.529   1.550  0.00  0.00    -0.066 C 
ATOM     39  H   LIG d   1       0.695   0.689   1.556  0.00  0.00     0.028 H 
ATOM     40  H   LIG d   1       2.239   1.334   2.062  0.00  0.00     0.028 H 
ATOM     41  H   LIG d   1       1.977  -0.394   2.043  0.00  0.00     0.028 H 
ENDBRANCH   1  38
BRANCH   8  42
ATOM     42  O   LIG d   1      -5.972   0.225   0.298  0.00  0.00    -0.361 OA
ATOM     43  H   LIG d   1      -6.451   1.030   0.315  0.00  0.00     0.217 HD
ENDBRANCH   8  42
TORSDOF 4
