@<TRIPOS>MOLECULE
17M
 43 46 0 0 0
SMALL
GASTEIGER

@<TRIPOS>ATOM
      1 C           1.7530    0.5290    1.5500 C.3     1  LIG1       -0.0564
      2 C           2.2510    0.4690    0.1050 C.3     1  LIG1        0.0036
      3 C           1.7000    1.6370   -0.6780 C.3     1  LIG1       -0.0404
      4 C           0.1930    1.7070   -0.4010 C.3     1  LIG1       -0.0262
      5 C          -0.4610    0.3530   -0.3310 C.ar    1  LIG1       -0.0362
      6 C          -1.8660    0.3190   -0.1780 C.ar    1  LIG1       -0.0142
      7 C          -2.6080    1.5130   -0.1510 C.ar    1  LIG1       -0.0503
      8 C          -3.9580    1.4640    0.0070 C.ar    1  LIG1       -0.0196
      9 C          -4.6220    0.2410    0.1410 C.ar    1  LIG1        0.1175
     10 O          -5.9720    0.2250    0.2980 O.3     1  LIG1       -0.5067
     11 C          -3.9320   -0.9370    0.1170 C.ar    1  LIG1       -0.0125
     12 C          -2.5370   -0.9200   -0.0460 C.ar    1  LIG1       -0.0142
     13 C          -1.7930   -2.1120   -0.0780 C.ar    1  LIG1       -0.0536
     14 C          -0.4470   -2.0500   -0.2450 C.ar    1  LIG1       -0.0574
     15 C           0.2180   -0.8300   -0.3790 C.ar    1  LIG1       -0.0399
     16 C           1.6960   -0.8120   -0.5780 C.3     1  LIG1       -0.0075
     17 C           2.5090   -1.9080    0.1120 C.3     1  LIG1       -0.0430
     18 C           3.9380   -1.2980    0.1580 C.3     1  LIG1       -0.0232
     19 C           3.7570    0.2410    0.0870 C.3     1  LIG1        0.0692
     20 C           4.4090    0.9080    1.3000 C.3     1  LIG1       -0.0355
     21 O           4.3220    0.7510   -1.1220 O.3     1  LIG1       -0.3883
     22 H           0.6951    0.6892    1.5563 H       1  LIG1        0.0236
     23 H           2.2386    1.3336    2.0615 H       1  LIG1        0.0236
     24 H           1.9769   -0.3939    2.0430 H       1  LIG1        0.0236
     25 H           1.8729    1.4901   -1.7237 H       1  LIG1        0.0275
     26 H           2.1800    2.5474   -0.3852 H       1  LIG1        0.0275
     27 H          -0.2710    2.2686   -1.1847 H       1  LIG1        0.0314
     28 H           0.0668    2.1707    0.5550 H       1  LIG1        0.0314
     29 H          -2.1304    2.4224   -0.2506 H       1  LIG1        0.0625
     30 H          -4.4999    2.3420    0.0283 H       1  LIG1        0.0654
     31 H          -6.4512    1.0300    0.3153 H       1  LIG1        0.2921
     32 H          -4.4322   -1.8340    0.2180 H       1  LIG1        0.0660
     33 H          -2.2646   -3.0242    0.0243 H       1  LIG1        0.0624
     34 H           0.0977   -2.9261   -0.2736 H       1  LIG1        0.0621
     35 H           1.8018   -0.9108   -1.6382 H       1  LIG1        0.0355
     36 H           2.4948   -2.8144   -0.4565 H       1  LIG1        0.0272
     37 H           2.1300   -2.1733    1.0768 H       1  LIG1        0.0272
     38 H           4.5147   -1.6420   -0.6751 H       1  LIG1        0.0293
     39 H           4.4561   -1.5880    1.0481 H       1  LIG1        0.0293
     40 H           3.9767    0.5170    2.1973 H       1  LIG1        0.0257
     41 H           4.2459    1.9646    1.2566 H       1  LIG1        0.0257
     42 H           5.4603    0.7088    1.2944 H       1  LIG1        0.0257
     43 H           3.9007    0.3207   -1.8825 H       1  LIG1        0.2102
@<TRIPOS>BOND
     1     1     2    1
     2     2     3    1
     3     2    16    1
     4     2    19    1
     5     3     4    1
     6     4     5    1
     7     5     6   ar
     8     5    15   ar
     9     6     7   ar
    10     6    12   ar
    11     7     8   ar
    12     8     9   ar
    13     9    10    1
    14     9    11   ar
    15    11    12   ar
    16    12    13   ar
    17    13    14   ar
    18    14    15   ar
    19    15    16    1
    20    16    17    1
    21    17    18    1
    22    18    19    1
    23    19    20    1
    24    19    21    1
    25     1    22    1
    26     1    23    1
    27     1    24    1
    28     3    25    1
    29     3    26    1
    30     4    27    1
    31     4    28    1
    32     7    29    1
    33     8    30    1
    34    10    31    1
    35    11    32    1
    36    13    33    1
    37    14    34    1
    38    16    35    1
    39    17    36    1
    40    17    37    1
    41    18    38    1
    42    18    39    1
    43    20    40    1
    44    20    41    1
    45    20    42    1
    46    21    43    1
