1GJ
  CCTOOLS-0322131036

 43 46  0  0  0  0  0  0  0  0999 V2000
    5.5890   -2.6210    0.0980 O   0  0  0  0  0
    4.3140   -2.1580    0.1660 C   0  0  0  0  0
    3.4990   -2.5280    1.2290 C   0  0  0  0  0
    2.2040   -2.0630    1.3040 C   0  0  0  0  0
    1.7080   -1.2150    0.3100 C   0  0  0  0  0
    0.3230   -0.7150    0.3880 C   0  0  0  0  0
   -0.8090   -1.3320   -0.1490 C   0  0  0  0  0
   -1.0430   -2.5120   -0.8760 C   0  0  0  0  0
   -2.3090   -2.8260   -1.2570 C   0  0  0  0  0
   -3.3930   -2.0030   -0.9450 C   0  0  0  0  0
   -3.2370   -0.8500   -0.2460 C   0  0  0  0  0
   -4.4320    0.0110    0.0720 C   0  0  0  0  0
   -5.5860   -0.5800   -0.4530 F   0  0  0  0  0
   -4.5610    0.1350    1.4600 F   0  0  0  0  0
   -4.2580    1.2780   -0.4950 F   0  0  0  0  0
   -1.9480   -0.4630    0.1810 C   0  0  0  0  0
   -1.4670    0.5650    0.8570 N   0  0  0  0  0
   -0.0820    0.4200    0.9950 N   0  0  0  0  0
    0.7970    1.3620    1.6920 C   0  0  0  0  0
    1.2910    2.4020    0.7200 C   0  0  0  0  0
    0.5740    3.5690    0.5320 C   0  0  0  0  0
    1.0260    4.5230   -0.3600 C   0  0  0  0  0
    2.1970    4.3100   -1.0650 C   0  0  0  0  0
    2.9140    3.1430   -0.8770 C   0  0  0  0  0
    2.4640    2.1920    0.0190 C   0  0  0  0  0
    2.5330   -0.8420   -0.7610 C   0  0  0  0  0
    2.0580   -0.0190   -1.7310 O   0  0  0  0  0
    3.8330   -1.3120   -0.8230 C   0  0  0  0  0
    6.2370   -2.0560    0.5410 H   0  0  0  0  0
    3.8810   -3.1830    1.9980 H   0  0  0  0  0
    1.5730   -2.3530    2.1310 H   0  0  0  0  0
   -0.2220   -3.1650   -1.1310 H   0  0  0  0  0
   -2.4810   -3.7340   -1.8160 H   0  0  0  0  0
   -4.3820   -2.2920   -1.2680 H   0  0  0  0  0
    0.2440    1.8490    2.4950 H   0  0  0  0  0
    1.6480    0.8240    2.1110 H   0  0  0  0  0
   -0.3410    3.7350    1.0820 H   0  0  0  0  0
    0.4660    5.4340   -0.5070 H   0  0  0  0  0
    2.5500    5.0550   -1.7620 H   0  0  0  0  0
    3.8280    2.9770   -1.4280 H   0  0  0  0  0
    3.0240    1.2810    0.1660 H   0  0  0  0  0
    2.2000    0.9210   -1.5530 H   0  0  0  0  0
    4.4720   -1.0240   -1.6450 H   0  0  0  0  0
  1  2  1  0  0  0
  1 29  1  0  0  0
  2 28  2  0  0  0
  2  3  1  0  0  0
  3  4  2  0  0  0
  3 30  1  0  0  0
  4  5  1  0  0  0
  4 31  1  0  0  0
  5  6  1  0  0  0
  6 18  1  0  0  0
  6  7  2  0  0  0
  7 16  1  0  0  0
  8  7  1  0  0  0
  8  9  2  0  0  0
  8 32  1  0  0  0
  9 10  1  0  0  0
  9 33  1  0  0  0
 10 11  2  0  0  0
 10 34  1  0  0  0
 11 12  1  0  0  0
 12 13  1  0  0  0
 12 15  1  0  0  0
 14 12  1  0  0  0
 16 11  1  0  0  0
 17 16  2  0  0  0
 18 17  1  0  0  0
 19 20  1  0  0  0
 19 18  1  0  0  0
 19 35  1  0  0  0
 19 36  1  0  0  0
 20 21  2  0  0  0
 21 22  1  0  0  0
 21 37  1  0  0  0
 22 38  1  0  0  0
 23 22  2  0  0  0
 23 39  1  0  0  0
 24 23  1  0  0  0
 24 40  1  0  0  0
 25 24  2  0  0  0
 25 20  1  0  0  0
 25 41  1  0  0  0
 26 27  1  0  0  0
 26  5  2  0  0  0
 27 42  1  0  0  0
 28 26  1  0  0  0
 28 43  1  0  0  0
M  END
$$$$
