@<TRIPOS>MOLECULE
1GJ
 43 46 0 0 0
SMALL
GASTEIGER

@<TRIPOS>ATOM
      1 O           5.5890   -2.6210    0.0980 O.3     1  LIG1       -0.5066
      2 C           4.3140   -2.1580    0.1660 C.ar    1  LIG1        0.1204
      3 C           3.4990   -2.5280    1.2290 C.ar    1  LIG1       -0.0193
      4 C           2.2040   -2.0630    1.3040 C.ar    1  LIG1       -0.0456
      5 C           1.7080   -1.2150    0.3100 C.ar    1  LIG1        0.0423
      6 C           0.3230   -0.7150    0.3880 C.ar    1  LIG1        0.0805
      7 C          -0.8090   -1.3320   -0.1490 C.ar    1  LIG1        0.0283
      8 C          -1.0430   -2.5120   -0.8760 C.ar    1  LIG1       -0.0504
      9 C          -2.3090   -2.8260   -1.2570 C.ar    1  LIG1       -0.0605
     10 C          -3.3930   -2.0030   -0.9450 C.ar    1  LIG1       -0.0480
     11 C          -3.2370   -0.8500   -0.2460 C.ar    1  LIG1        0.0824
     12 C          -4.4320    0.0110    0.0720 C.3     1  LIG1        0.4194
     13 F          -5.5860   -0.5800   -0.4530 F       1  LIG1       -0.1658
     14 F          -4.5610    0.1350    1.4600 F       1  LIG1       -0.1658
     15 F          -4.2580    1.2780   -0.4950 F       1  LIG1       -0.1658
     16 C          -1.9480   -0.4630    0.1810 C.ar    1  LIG1        0.1050
     17 N          -1.4670    0.5650    0.8570 N.ar    1  LIG1       -0.1698
     18 N          -0.0820    0.4200    0.9950 N.ar    1  LIG1       -0.2581
     19 C           0.7970    1.3620    1.6920 C.3     1  LIG1        0.0672
     20 C           1.2910    2.4020    0.7200 C.ar    1  LIG1       -0.0261
     21 C           0.5740    3.5690    0.5320 C.ar    1  LIG1       -0.0568
     22 C           1.0260    4.5230   -0.3600 C.ar    1  LIG1       -0.0614
     23 C           2.1970    4.3100   -1.0650 C.ar    1  LIG1       -0.0617
     24 C           2.9140    3.1430   -0.8770 C.ar    1  LIG1       -0.0614
     25 C           2.4640    2.1920    0.0190 C.ar    1  LIG1       -0.0568
     26 C           2.5330   -0.8420   -0.7610 C.ar    1  LIG1        0.1295
     27 O           2.0580   -0.0190   -1.7310 O.3     1  LIG1       -0.5060
     28 C           3.8330   -1.3120   -0.8230 C.ar    1  LIG1        0.0220
     29 H           6.1401   -2.3726   -0.6180 H       1  LIG1        0.2921
     30 H           3.8647   -3.1529    1.9644 H       1  LIG1        0.0654
     31 H           1.6007   -2.3408    2.0938 H       1  LIG1        0.0626
     32 H          -0.2579   -3.1362   -1.1190 H       1  LIG1        0.0625
     33 H          -2.4734   -3.6942   -1.7901 H       1  LIG1        0.0618
     34 H          -4.3382   -2.2788   -1.2542 H       1  LIG1        0.0624
     35 H           0.2539    1.8401    2.4803 H       1  LIG1        0.0559
     36 H           1.6315    0.8334    2.1032 H       1  LIG1        0.0559
     37 H          -0.2995    3.7279    1.0582 H       1  LIG1        0.0621
     38 H           0.4902    5.3938   -0.5001 H       1  LIG1        0.0618
     39 H           2.5353    5.0220   -1.7311 H       1  LIG1        0.0618
     40 H           3.7854    2.9820   -1.4059 H       1  LIG1        0.0618
     41 H           3.0038    1.3246    0.1649 H       1  LIG1        0.0621
     42 H           1.1773    0.2979   -1.6867 H       1  LIG1        0.2922
     43 H           4.4453   -1.0331   -1.6055 H       1  LIG1        0.0691
@<TRIPOS>BOND
     1     1     2    1
     2     2    28   ar
     3     2     3   ar
     4     3     4   ar
     5     4     5   ar
     6     5     6    1
     7     6    18   ar
     8     6     7   ar
     9     7    16   ar
    10     8     7   ar
    11     8     9   ar
    12     9    10   ar
    13    10    11   ar
    14    11    12    1
    15    12    13    1
    16    12    15    1
    17    14    12    1
    18    16    11   ar
    19    17    16   ar
    20    18    17   ar
    21    19    20    1
    22    19    18    1
    23    20    21   ar
    24    21    22   ar
    25    23    22   ar
    26    24    23   ar
    27    25    24   ar
    28    25    20   ar
    29    26    27    1
    30    26     5   ar
    31    28    26   ar
    32     1    29    1
    33     3    30    1
    34     4    31    1
    35     8    32    1
    36     9    33    1
    37    10    34    1
    38    19    35    1
    39    19    36    1
    40    21    37    1
    41    22    38    1
    42    23    39    1
    43    24    40    1
    44    25    41    1
    45    27    42    1
    46    28    43    1
