REMARK  6 active torsions:
REMARK  status: ('A' for Active; 'I' for Inactive)
REMARK    1  A    between atoms: O_1  and  C_2 
REMARK    2  A    between atoms: C_5  and  C_6 
REMARK    3  A    between atoms: C_11  and  C_12 
REMARK    4  A    between atoms: C_20  and  N_19 
REMARK    5  A    between atoms: C_20  and  C_21 
REMARK    6  A    between atoms: C_27  and  O_28 
ROOT
ATOM      1  C   LIG d   1       0.323  -0.715   0.388  0.00  0.00     0.076 A 
ATOM      2  C   LIG d   1      -0.809  -1.332  -0.149  0.00  0.00     0.022 A 
ATOM      3  C   LIG d   1      -1.043  -2.512  -0.876  0.00  0.00    -0.069 A 
ATOM      4  C   LIG d   1      -2.309  -2.826  -1.257  0.00  0.00    -0.081 A 
ATOM      5  C   LIG d   1      -3.393  -2.003  -0.945  0.00  0.00    -0.066 A 
ATOM      6  C   LIG d   1      -3.237  -0.850  -0.246  0.00  0.00     0.076 A 
ATOM      7  C   LIG d   1      -1.948  -0.463   0.181  0.00  0.00     0.075 A 
ATOM      8  N   LIG d   1      -1.467   0.565   0.857  0.00  0.00    -0.296 N 
ATOM      9  HN  LIG d   1      -2.018   1.342   1.221  1.00  0.00     0.187 HD
ATOM     10  N   LIG d   1      -0.082   0.420   0.995  0.00  0.00    -0.286 N 
ATOM     11  H   LIG d   1      -0.258  -3.136  -1.119  0.00  0.00     0.085 H 
ATOM     12  H   LIG d   1      -2.473  -3.694  -1.790  0.00  0.00     0.083 H 
ATOM     13  H   LIG d   1      -4.338  -2.279  -1.254  0.00  0.00     0.084 H 
ENDROOT
BRANCH  10  14
ATOM     14  C   LIG d   1       0.797   1.362   1.692  0.00  0.00     0.039 C 
ATOM     15  H   LIG d   1       0.254   1.840   2.480  0.00  0.00     0.074 H 
ATOM     16  H   LIG d   1       1.631   0.833   2.103  0.00  0.00     0.074 H 
BRANCH  14  17
ATOM     17  C   LIG d   1       1.291   2.402   0.720  0.00  0.00    -0.038 A 
ATOM     18  C   LIG d   1       0.574   3.569   0.532  0.00  0.00    -0.075 A 
ATOM     19  C   LIG d   1       1.026   4.523  -0.360  0.00  0.00    -0.082 A 
ATOM     20  H   LIG d   1      -0.299   3.728   1.058  0.00  0.00     0.084 H 
ATOM     21  C   LIG d   1       2.197   4.310  -1.065  0.00  0.00    -0.083 A 
ATOM     22  H   LIG d   1       0.490   5.394  -0.500  0.00  0.00     0.083 H 
ATOM     23  C   LIG d   1       2.914   3.143  -0.877  0.00  0.00    -0.082 A 
ATOM     24  H   LIG d   1       2.535   5.022  -1.731  0.00  0.00     0.083 H 
ATOM     25  C   LIG d   1       2.464   2.192   0.019  0.00  0.00    -0.075 A 
ATOM     26  H   LIG d   1       3.785   2.982  -1.406  0.00  0.00     0.083 H 
ATOM     27  H   LIG d   1       3.004   1.325   0.165  0.00  0.00     0.084 H 
ENDBRANCH  14  17
ENDBRANCH  10  14
BRANCH   1  28
ATOM     28  C   LIG d   1       1.708  -1.215   0.310  0.00  0.00     0.026 A 
ATOM     29  C   LIG d   1       2.204  -2.063   1.304  0.00  0.00    -0.065 A 
ATOM     30  C   LIG d   1       3.499  -2.528   1.229  0.00  0.00    -0.050 A 
ATOM     31  H   LIG d   1       1.601  -2.341   2.094  0.00  0.00     0.085 H 
ATOM     32  C   LIG d   1       4.314  -2.158   0.166  0.00  0.00     0.068 A 
ATOM     33  H   LIG d   1       3.865  -3.153   1.964  0.00  0.00     0.087 H 
ATOM     34  C   LIG d   1       3.833  -1.312  -0.823  0.00  0.00    -0.018 A 
ATOM     35  C   LIG d   1       2.533  -0.842  -0.761  0.00  0.00     0.081 A 
ATOM     36  H   LIG d   1       4.445  -1.033  -1.605  0.00  0.00     0.092 H 
BRANCH  32  37
ATOM     37  O   LIG d   1       5.589  -2.621   0.098  0.00  0.00    -0.361 OA
ATOM     38  H   LIG d   1       6.140  -2.373  -0.618  0.00  0.00     0.217 HD
ENDBRANCH  32  37
BRANCH  35  39
ATOM     39  O   LIG d   1       2.058  -0.019  -1.731  0.00  0.00    -0.360 OA
ATOM     40  H   LIG d   1       1.177   0.298  -1.687  0.00  0.00     0.217 HD
ENDBRANCH  35  39
ENDBRANCH   1  28
BRANCH   6  41
ATOM     41  C   LIG d   1      -4.432   0.011   0.072  0.00  0.00     0.419 C 
ATOM     42  F   LIG d   1      -5.586  -0.580  -0.453  0.00  0.00    -0.166 F 
ATOM     43  F   LIG d   1      -4.258   1.278  -0.495  0.00  0.00    -0.166 F 
ATOM     44  F   LIG d   1      -4.561   0.135   1.460  0.00  0.00    -0.166 F 
ENDBRANCH   6  41
TORSDOF 6
