REMARK  6 active torsions:
REMARK  status: ('A' for Active; 'I' for Inactive)
REMARK    1  A    between atoms: C_1  and  C_2 
REMARK    2  A    between atoms: C_2  and  N_3 
REMARK    3  A    between atoms: C_7  and  C_8 
REMARK    4  A    between atoms: C_17  and  C_16 
REMARK    5  A    between atoms: O_21  and  C_20 
REMARK    6  A    between atoms: C_23  and  O_24 
ROOT
ATOM      1  N   LIG d   1      -0.111   1.443   0.227  0.00  0.00    -0.290 N 
ATOM      2  N   LIG d   1       1.282   1.306   0.230  0.00  0.00    -0.296 N 
ATOM      3  HN  LIG d   1       1.949   2.060   0.397  1.00  0.00     0.187 HD
ATOM      4  C   LIG d   1       1.598   0.047  -0.018  0.00  0.00     0.075 A 
ATOM      5  C   LIG d   1       2.812  -0.663  -0.135  0.00  0.00     0.076 A 
ATOM      6  C   LIG d   1       2.787  -1.993  -0.404  0.00  0.00    -0.066 A 
ATOM      7  C   LIG d   1       1.587  -2.686  -0.571  0.00  0.00    -0.081 A 
ATOM      8  C   LIG d   1       0.384  -2.063  -0.471  0.00  0.00    -0.069 A 
ATOM      9  C   LIG d   1       0.336  -0.686  -0.193  0.00  0.00     0.022 A 
ATOM     10  C   LIG d   1      -0.688   0.249  -0.021  0.00  0.00     0.076 A 
ATOM     11  H   LIG d   1       3.679  -2.506  -0.487  0.00  0.00     0.084 H 
ATOM     12  H   LIG d   1       1.614  -3.697  -0.776  0.00  0.00     0.083 H 
ATOM     13  H   LIG d   1      -0.489  -2.598  -0.598  0.00  0.00     0.085 H 
ENDROOT
BRANCH  10  14
ATOM     14  C   LIG d   1      -2.136  -0.020  -0.099  0.00  0.00     0.026 A 
ATOM     15  C   LIG d   1      -2.804   0.088  -1.321  0.00  0.00    -0.065 A 
ATOM     16  C   LIG d   1      -4.157  -0.164  -1.390  0.00  0.00    -0.050 A 
ATOM     17  H   LIG d   1      -2.285   0.356  -2.171  0.00  0.00     0.085 H 
ATOM     18  C   LIG d   1      -4.860  -0.526  -0.247  0.00  0.00     0.068 A 
ATOM     19  H   LIG d   1      -4.650  -0.084  -2.293  0.00  0.00     0.087 H 
ATOM     20  C   LIG d   1      -4.205  -0.637   0.971  0.00  0.00    -0.018 A 
ATOM     21  C   LIG d   1      -2.846  -0.391   1.052  0.00  0.00     0.081 A 
ATOM     22  H   LIG d   1      -4.732  -0.903   1.817  0.00  0.00     0.092 H 
BRANCH  18  23
ATOM     23  O   LIG d   1      -6.195  -0.769  -0.321  0.00  0.00    -0.361 OA
ATOM     24  H   LIG d   1      -6.670  -1.013   0.449  0.00  0.00     0.217 HD
ENDBRANCH  18  23
BRANCH  21  25
ATOM     25  O   LIG d   1      -2.203  -0.498   2.244  0.00  0.00    -0.360 OA
ATOM     26  H   LIG d   1      -2.679  -0.746   3.012  0.00  0.00     0.217 HD
ENDBRANCH  21  25
ENDBRANCH  10  14
BRANCH   1  27
ATOM     27  C   LIG d   1      -0.834   2.695   0.465  0.00  0.00     0.012 C 
ATOM     28  H   LIG d   1      -1.780   2.480   0.917  0.00  0.00     0.066 H 
ATOM     29  H   LIG d   1      -0.261   3.320   1.118  0.00  0.00     0.066 H 
BRANCH  27  30
ATOM     30  C   LIG d   1      -1.056   3.416  -0.866  0.00  0.00    -0.059 C 
ATOM     31  H   LIG d   1      -1.584   4.330  -0.693  0.00  0.00     0.029 H 
ATOM     32  H   LIG d   1      -1.629   2.791  -1.519  0.00  0.00     0.029 H 
ATOM     33  H   LIG d   1      -0.110   3.631  -1.318  0.00  0.00     0.029 H 
ENDBRANCH  27  30
ENDBRANCH   1  27
BRANCH   5  34
ATOM     34  C   LIG d   1       4.128   0.050   0.038  0.00  0.00     0.419 C 
ATOM     35  F   LIG d   1       5.177  -0.861  -0.123  0.00  0.00    -0.166 F 
ATOM     36  F   LIG d   1       4.239   1.064  -0.920  0.00  0.00    -0.166 F 
ATOM     37  F   LIG d   1       4.190   0.611   1.319  0.00  0.00    -0.166 F 
ENDBRANCH   5  34
TORSDOF 6
