@<TRIPOS>MOLECULE
1GM
 36 38 0 0 0
SMALL
GASTEIGER

@<TRIPOS>ATOM
      1 C          -1.0560    3.4160   -0.8660 C.3     1  LIG1       -0.0455
      2 C          -0.8340    2.6950    0.4650 C.3     1  LIG1        0.0394
      3 N          -0.1110    1.4430    0.2270 N.ar    1  LIG1       -0.2627
      4 N           1.2820    1.3060    0.2300 N.ar    1  LIG1       -0.1701
      5 C           1.5980    0.0470   -0.0180 C.ar    1  LIG1        0.1050
      6 C           2.8120   -0.6630   -0.1350 C.ar    1  LIG1        0.0824
      7 C           4.1280    0.0500    0.0380 C.3     1  LIG1        0.4194
      8 F           4.1900    0.6110    1.3190 F       1  LIG1       -0.1658
      9 F           5.1770   -0.8610   -0.1230 F       1  LIG1       -0.1658
     10 F           4.2390    1.0640   -0.9200 F       1  LIG1       -0.1658
     11 C           2.7870   -1.9930   -0.4040 C.ar    1  LIG1       -0.0480
     12 C           1.5870   -2.6860   -0.5710 C.ar    1  LIG1       -0.0605
     13 C           0.3840   -2.0630   -0.4710 C.ar    1  LIG1       -0.0504
     14 C           0.3360   -0.6860   -0.1930 C.ar    1  LIG1        0.0283
     15 C          -0.6880    0.2490   -0.0210 C.ar    1  LIG1        0.0801
     16 C          -2.1360   -0.0200   -0.0990 C.ar    1  LIG1        0.0423
     17 C          -2.8040    0.0880   -1.3210 C.ar    1  LIG1       -0.0456
     18 C          -4.1570   -0.1640   -1.3900 C.ar    1  LIG1       -0.0193
     19 C          -4.8600   -0.5260   -0.2470 C.ar    1  LIG1        0.1204
     20 O          -6.1950   -0.7690   -0.3210 O.3     1  LIG1       -0.5066
     21 C          -4.2050   -0.6370    0.9710 C.ar    1  LIG1        0.0220
     22 C          -2.8460   -0.3910    1.0520 C.ar    1  LIG1        0.1295
     23 O          -2.2030   -0.4980    2.2440 O.3     1  LIG1       -0.5060
     24 H          -1.5840    4.3304   -0.6926 H       1  LIG1        0.0247
     25 H          -1.6293    2.7914   -1.5187 H       1  LIG1        0.0247
     26 H          -0.1100    3.6305   -1.3176 H       1  LIG1        0.0247
     27 H          -1.7800    2.4804    0.9166 H       1  LIG1        0.0506
     28 H          -0.2608    3.3195    1.1179 H       1  LIG1        0.0506
     29 H           3.6789   -2.5055   -0.4873 H       1  LIG1        0.0624
     30 H           1.6143   -3.6971   -0.7756 H       1  LIG1        0.0618
     31 H          -0.4895   -2.5976   -0.5984 H       1  LIG1        0.0625
     32 H          -2.2847    0.3563   -2.1715 H       1  LIG1        0.0626
     33 H          -4.6498   -0.0837   -2.2932 H       1  LIG1        0.0654
     34 H          -6.6701   -1.0131    0.4488 H       1  LIG1        0.2921
     35 H          -4.7320   -0.9033    1.8174 H       1  LIG1        0.0691
     36 H          -2.6786   -0.7460    3.0123 H       1  LIG1        0.2922
@<TRIPOS>BOND
     1     1     2    1
     2     2     3    1
     3     3     4   ar
     4     4     5   ar
     5     5     6   ar
     6     6     7    1
     7     7     9    1
     8     7    10    1
     9     8     7    1
    10    11     6   ar
    11    12    11   ar
    12    13    14   ar
    13    13    12   ar
    14    14     5   ar
    15    15     3   ar
    16    15    14   ar
    17    16    15    1
    18    17    16   ar
    19    18    17   ar
    20    19    21   ar
    21    19    18   ar
    22    20    19    1
    23    21    22   ar
    24    22    23    1
    25    22    16   ar
    26     1    24    1
    27     1    25    1
    28     1    26    1
    29     2    27    1
    30     2    28    1
    31    11    29    1
    32    12    30    1
    33    13    31    1
    34    17    32    1
    35    18    33    1
    36    20    34    1
    37    21    35    1
    38    23    36    1
