1GM
  CCTOOLS-0322131036

 36 38  0  0  0  0  0  0  0  0999 V2000
   -1.0560    3.4160   -0.8660 C   0  0  0  0  0
   -0.8340    2.6950    0.4650 C   0  0  0  0  0
   -0.1110    1.4430    0.2270 N   0  0  0  0  0
    1.2820    1.3060    0.2300 N   0  0  0  0  0
    1.5980    0.0470   -0.0180 C   0  0  0  0  0
    2.8120   -0.6630   -0.1350 C   0  0  0  0  0
    4.1280    0.0500    0.0380 C   0  0  0  0  0
    4.1900    0.6110    1.3190 F   0  0  0  0  0
    5.1770   -0.8610   -0.1230 F   0  0  0  0  0
    4.2390    1.0640   -0.9200 F   0  0  0  0  0
    2.7870   -1.9930   -0.4040 C   0  0  0  0  0
    1.5870   -2.6860   -0.5710 C   0  0  0  0  0
    0.3840   -2.0630   -0.4710 C   0  0  0  0  0
    0.3360   -0.6860   -0.1930 C   0  0  0  0  0
   -0.6880    0.2490   -0.0210 C   0  0  0  0  0
   -2.1360   -0.0200   -0.0990 C   0  0  0  0  0
   -2.8040    0.0880   -1.3210 C   0  0  0  0  0
   -4.1570   -0.1640   -1.3900 C   0  0  0  0  0
   -4.8600   -0.5260   -0.2470 C   0  0  0  0  0
   -6.1950   -0.7690   -0.3210 O   0  0  0  0  0
   -4.2050   -0.6370    0.9710 C   0  0  0  0  0
   -2.8460   -0.3910    1.0520 C   0  0  0  0  0
   -2.2030   -0.4980    2.2440 O   0  0  0  0  0
   -0.0920    3.6350   -1.3260 H   0  0  0  0  0
   -1.6390    2.7800   -1.5310 H   0  0  0  0  0
   -1.5940    4.3470   -0.6890 H   0  0  0  0  0
   -0.2500    3.3310    1.1300 H   0  0  0  0  0
   -1.7980    2.4760    0.9240 H   0  0  0  0  0
    3.7200   -2.5290   -0.4920 H   0  0  0  0  0
    1.6150   -3.7440   -0.7840 H   0  0  0  0  0
   -0.5310   -2.6230   -0.6040 H   0  0  0  0  0
   -2.2610    0.3700   -2.2110 H   0  0  0  0  0
   -4.6730   -0.0800   -2.3350 H   0  0  0  0  0
   -6.7450    0.0130   -0.1780 H   0  0  0  0  0
   -4.7560   -0.9180    1.8570 H   0  0  0  0  0
   -1.8530   -1.3820    2.4240 H   0  0  0  0  0
  1  2  1  0  0  0
  1 24  1  0  0  0
  1 25  1  0  0  0
  1 26  1  0  0  0
  2  3  1  0  0  0
  2 27  1  0  0  0
  2 28  1  0  0  0
  3  4  1  0  0  0
  4  5  2  0  0  0
  5  6  1  0  0  0
  6  7  1  0  0  0
  7  9  1  0  0  0
  7 10  1  0  0  0
  8  7  1  0  0  0
 11  6  2  0  0  0
 11 29  1  0  0  0
 12 11  1  0  0  0
 12 30  1  0  0  0
 13 14  1  0  0  0
 13 12  2  0  0  0
 13 31  1  0  0  0
 14  5  1  0  0  0
 15  3  1  0  0  0
 15 14  2  0  0  0
 16 15  1  0  0  0
 17 16  1  0  0  0
 17 32  1  0  0  0
 18 17  2  0  0  0
 18 33  1  0  0  0
 19 21  2  0  0  0
 19 18  1  0  0  0
 20 19  1  0  0  0
 20 34  1  0  0  0
 21 22  1  0  0  0
 21 35  1  0  0  0
 22 23  1  0  0  0
 22 16  2  0  0  0
 23 36  1  0  0  0
M  END
$$$$
