@<TRIPOS>MOLECULE
1GQ
 42 44 0 0 0
SMALL
GASTEIGER

@<TRIPOS>ATOM
      1 C          -4.8730   -0.9750   -0.5980 C.ar    1  LIG1       -0.0193
      2 C          -4.7660    1.1990    0.4280 C.ar    1  LIG1        0.0220
      3 C          -0.6500   -2.3820    0.6410 C.ar    1  LIG1       -0.0504
      4 C           1.9700   -1.5700    0.1550 C.ar    1  LIG1        0.0804
      5 C           3.3930   -1.1470   -0.1010 C.3     1  LIG1        0.4194
      6 C           4.0800    4.0040    0.8940 C.3     1  LIG1       -0.0652
      7 C           3.6840    3.0710   -0.2520 C.3     1  LIG1       -0.0542
      8 C           2.4030    2.3220    0.1190 C.3     1  LIG1       -0.0336
      9 C           2.0070    1.3890   -1.0270 C.3     1  LIG1        0.0422
     10 N           0.8560    0.5780   -0.6210 N.ar    1  LIG1       -0.2626
     11 N          -0.4810    0.9820   -0.6870 N.ar    1  LIG1       -0.1699
     12 C          -1.2620    0.0130   -0.2730 C.ar    1  LIG1        0.1039
     13 C          -2.7410    0.0540   -0.1940 C.ar    1  LIG1        0.0443
     14 C          -3.4960   -1.0150   -0.6730 C.ar    1  LIG1       -0.0455
     15 C          -5.5100    0.1310   -0.0510 C.ar    1  LIG1        0.1204
     16 O          -6.8670    0.1670    0.0150 O.3     1  LIG1       -0.5066
     17 C          -3.3840    1.1660    0.3610 C.ar    1  LIG1        0.1295
     18 O          -2.6540    2.2110    0.8290 O.3     1  LIG1       -0.5060
     19 C          -0.4030   -1.1090    0.1220 C.ar    1  LIG1        0.0283
     20 C           0.3940   -3.2180    0.9120 C.ar    1  LIG1       -0.0605
     21 C           1.7020   -2.8180    0.6710 C.ar    1  LIG1       -0.0480
     22 F           4.2660   -2.1280    0.3810 F       1  LIG1       -0.1658
     23 F           3.5910   -0.9830   -1.4760 F       1  LIG1       -0.1658
     24 F           3.6450    0.0640    0.5540 F       1  LIG1       -0.1658
     25 C           0.9200   -0.6960   -0.1180 C.ar    1  LIG1        0.0811
     26 H          -5.4309   -1.7689   -0.9493 H       1  LIG1        0.0654
     27 H          -5.2432    2.0188    0.8346 H       1  LIG1        0.0691
     28 H          -1.6190   -2.6894    0.8190 H       1  LIG1        0.0625
     29 H           4.9761    4.5277    0.6341 H       1  LIG1        0.0230
     30 H           4.2474    3.4288    1.7806 H       1  LIG1        0.0230
     31 H           3.2934    4.7080    1.0688 H       1  LIG1        0.0230
     32 H           4.4707    2.3671   -0.4268 H       1  LIG1        0.0263
     33 H           3.5164    3.6464   -1.1384 H       1  LIG1        0.0263
     34 H           1.6163    3.0259    0.2938 H       1  LIG1        0.0283
     35 H           2.5706    1.7466    1.0054 H       1  LIG1        0.0283
     36 H           2.8294    0.7472   -1.2648 H       1  LIG1        0.0509
     37 H           1.7481    1.9705   -1.8871 H       1  LIG1        0.0509
     38 H          -3.0251   -1.8364   -1.0837 H       1  LIG1        0.0626
     39 H          -7.2985    0.9125    0.3838 H       1  LIG1        0.2921
     40 H          -3.0857    2.9551    1.2004 H       1  LIG1        0.2922
     41 H           0.2098   -4.1565    1.2998 H       1  LIG1        0.0618
     42 H           2.4804   -3.4623    0.8807 H       1  LIG1        0.0624
@<TRIPOS>BOND
     1     2    15   ar
     2     3    20   ar
     3     4    21   ar
     4     5    22    1
     5     5    24    1
     6     5     4    1
     7     6     7    1
     8     8     7    1
     9     9     8    1
    10     9    10    1
    11    10    11   ar
    12    10    25   ar
    13    11    12   ar
    14    12    19   ar
    15    12    13    1
    16    13    14   ar
    17    14     1   ar
    18    15    16    1
    19    15     1   ar
    20    17     2   ar
    21    17    13   ar
    22    18    17    1
    23    19     3   ar
    24    21    20   ar
    25    23     5    1
    26    25     4   ar
    27    25    19   ar
    28     1    26    1
    29     2    27    1
    30     3    28    1
    31     6    29    1
    32     6    30    1
    33     6    31    1
    34     7    32    1
    35     7    33    1
    36     8    34    1
    37     8    35    1
    38     9    36    1
    39     9    37    1
    40    14    38    1
    41    16    39    1
    42    18    40    1
    43    20    41    1
    44    21    42    1
