REMARK  8 active torsions:
REMARK  status: ('A' for Active; 'I' for Inactive)
REMARK    1  A    between atoms: C_5  and  C_4 
REMARK    2  A    between atoms: C_6  and  C_7 
REMARK    3  A    between atoms: C_8  and  C_7 
REMARK    4  A    between atoms: C_9  and  C_8 
REMARK    5  A    between atoms: C_9  and  N_10 
REMARK    6  A    between atoms: C_13  and  C_14 
REMARK    7  A    between atoms: C_16  and  O_17 
REMARK    8  A    between atoms: O_19  and  C_18 
ROOT
ATOM      1  C   LIG d   1      -0.650  -2.382   0.641  0.00  0.00    -0.069 A 
ATOM      2  C   LIG d   1       1.970  -1.570   0.155  0.00  0.00     0.077 A 
ATOM      3  N   LIG d   1       0.856   0.578  -0.621  0.00  0.00    -0.290 N 
ATOM      4  N   LIG d   1      -0.481   0.982  -0.687  0.00  0.00    -0.296 N 
ATOM      5  HN  LIG d   1      -0.802   1.895  -1.009  1.00  0.00     0.187 HD
ATOM      6  C   LIG d   1      -1.262   0.013  -0.273  0.00  0.00     0.073 A 
ATOM      7  C   LIG d   1      -0.403  -1.109   0.122  0.00  0.00     0.022 A 
ATOM      8  C   LIG d   1       0.394  -3.218   0.912  0.00  0.00    -0.081 A 
ATOM      9  C   LIG d   1       1.702  -2.818   0.671  0.00  0.00    -0.066 A 
ATOM     10  C   LIG d   1       0.920  -0.696  -0.118  0.00  0.00     0.078 A 
ATOM     11  H   LIG d   1      -1.619  -2.689   0.819  0.00  0.00     0.085 H 
ATOM     12  H   LIG d   1       0.210  -4.157   1.300  0.00  0.00     0.083 H 
ATOM     13  H   LIG d   1       2.480  -3.462   0.881  0.00  0.00     0.084 H 
ENDROOT
BRANCH   3  14
ATOM     14  C   LIG d   1       2.007   1.389  -1.027  0.00  0.00     0.015 C 
ATOM     15  H   LIG d   1       2.829   0.747  -1.265  0.00  0.00     0.067 H 
ATOM     16  H   LIG d   1       1.748   1.970  -1.887  0.00  0.00     0.067 H 
BRANCH  14  17
ATOM     17  C   LIG d   1       2.403   2.322   0.119  0.00  0.00    -0.049 C 
ATOM     18  H   LIG d   1       1.616   3.026   0.294  0.00  0.00     0.035 H 
ATOM     19  H   LIG d   1       2.571   1.747   1.005  0.00  0.00     0.035 H 
BRANCH  17  20
ATOM     20  C   LIG d   1       3.684   3.071  -0.252  0.00  0.00    -0.067 C 
ATOM     21  H   LIG d   1       4.471   2.367  -0.427  0.00  0.00     0.032 H 
ATOM     22  H   LIG d   1       3.516   3.646  -1.138  0.00  0.00     0.032 H 
BRANCH  20  23
ATOM     23  C   LIG d   1       4.080   4.004   0.894  0.00  0.00    -0.076 C 
ATOM     24  H   LIG d   1       4.976   4.528   0.634  0.00  0.00     0.027 H 
ATOM     25  H   LIG d   1       4.247   3.429   1.781  0.00  0.00     0.027 H 
ATOM     26  H   LIG d   1       3.293   4.708   1.069  0.00  0.00     0.027 H 
ENDBRANCH  20  23
ENDBRANCH  17  20
ENDBRANCH  14  17
ENDBRANCH   3  14
BRANCH   6  27
ATOM     27  C   LIG d   1      -2.741   0.054  -0.194  0.00  0.00     0.026 A 
ATOM     28  C   LIG d   1      -3.496  -1.015  -0.673  0.00  0.00    -0.065 A 
ATOM     29  C   LIG d   1      -4.873  -0.975  -0.598  0.00  0.00    -0.050 A 
ATOM     30  H   LIG d   1      -3.025  -1.836  -1.084  0.00  0.00     0.085 H 
ATOM     31  C   LIG d   1      -5.510   0.131  -0.051  0.00  0.00     0.068 A 
ATOM     32  H   LIG d   1      -5.431  -1.769  -0.949  0.00  0.00     0.087 H 
ATOM     33  C   LIG d   1      -4.766   1.199   0.428  0.00  0.00    -0.018 A 
ATOM     34  C   LIG d   1      -3.384   1.166   0.361  0.00  0.00     0.081 A 
ATOM     35  H   LIG d   1      -5.243   2.019   0.835  0.00  0.00     0.092 H 
BRANCH  31  36
ATOM     36  O   LIG d   1      -6.867   0.167   0.015  0.00  0.00    -0.361 OA
ATOM     37  H   LIG d   1      -7.298   0.912   0.384  0.00  0.00     0.217 HD
ENDBRANCH  31  36
BRANCH  34  38
ATOM     38  O   LIG d   1      -2.654   2.211   0.829  0.00  0.00    -0.360 OA
ATOM     39  H   LIG d   1      -3.086   2.955   1.200  0.00  0.00     0.217 HD
ENDBRANCH  34  38
ENDBRANCH   6  27
BRANCH   2  40
ATOM     40  C   LIG d   1       3.393  -1.147  -0.101  0.00  0.00     0.419 C 
ATOM     41  F   LIG d   1       4.266  -2.128   0.381  0.00  0.00    -0.166 F 
ATOM     42  F   LIG d   1       3.645   0.064   0.554  0.00  0.00    -0.166 F 
ATOM     43  F   LIG d   1       3.591  -0.983  -1.476  0.00  0.00    -0.166 F 
ENDBRANCH   2  40
TORSDOF 8
