1GQ
  CCTOOLS-0322131036

 42 44  0  0  0  0  0  0  0  0999 V2000
   -4.8730   -0.9750   -0.5980 C   0  0  0  0  0
   -4.7660    1.1990    0.4280 C   0  0  0  0  0
   -0.6500   -2.3820    0.6410 C   0  0  0  0  0
    1.9700   -1.5700    0.1550 C   0  0  0  0  0
    3.3930   -1.1470   -0.1010 C   0  0  0  0  0
    4.0800    4.0040    0.8940 C   0  0  0  0  0
    3.6840    3.0710   -0.2520 C   0  0  0  0  0
    2.4030    2.3220    0.1190 C   0  0  0  0  0
    2.0070    1.3890   -1.0270 C   0  0  0  0  0
    0.8560    0.5780   -0.6210 N   0  0  0  0  0
   -0.4810    0.9820   -0.6870 N   0  0  0  0  0
   -1.2620    0.0130   -0.2730 C   0  0  0  0  0
   -2.7410    0.0540   -0.1940 C   0  0  0  0  0
   -3.4960   -1.0150   -0.6730 C   0  0  0  0  0
   -5.5100    0.1310   -0.0510 C   0  0  0  0  0
   -6.8670    0.1670    0.0150 O   0  0  0  0  0
   -3.3840    1.1660    0.3610 C   0  0  0  0  0
   -2.6540    2.2110    0.8290 O   0  0  0  0  0
   -0.4030   -1.1090    0.1220 C   0  0  0  0  0
    0.3940   -3.2180    0.9120 C   0  0  0  0  0
    1.7020   -2.8180    0.6710 C   0  0  0  0  0
    4.2660   -2.1280    0.3810 F   0  0  0  0  0
    3.5910   -0.9830   -1.4760 F   0  0  0  0  0
    3.6450    0.0640    0.5540 F   0  0  0  0  0
    0.9200   -0.6960   -0.1180 C   0  0  0  0  0
   -5.4570   -1.8040   -0.9690 H   0  0  0  0  0
   -5.2650    2.0580    0.8530 H   0  0  0  0  0
   -1.6640   -2.7020    0.8310 H   0  0  0  0  0
    4.9930    4.5370    0.6300 H   0  0  0  0  0
    3.2790    4.7210    1.0720 H   0  0  0  0  0
    4.2510    3.4180    1.7970 H   0  0  0  0  0
    3.5140    3.6570   -1.1550 H   0  0  0  0  0
    4.4860    2.3540   -0.4300 H   0  0  0  0  0
    2.5730    1.7360    1.0230 H   0  0  0  0  0
    1.6020    3.0390    0.2980 H   0  0  0  0  0
    1.7440    1.9810   -1.9030 H   0  0  0  0  0
    2.8450    0.7350   -1.2690 H   0  0  0  0  0
   -3.0030   -1.8750   -1.1030 H   0  0  0  0  0
   -7.2880    0.5550   -0.7640 H   0  0  0  0  0
   -2.4130    2.1360    1.7630 H   0  0  0  0  0
    0.2020   -4.2010    1.3170 H   0  0  0  0  0
    2.5170   -3.4950    0.8830 H   0  0  0  0  0
  1 26  1  0  0  0
  2 15  1  0  0  0
  2 27  1  0  0  0
  3 20  1  0  0  0
  3 28  1  0  0  0
  4 21  1  0  0  0
  5 22  1  0  0  0
  5 24  1  0  0  0
  5  4  1  0  0  0
  6  7  1  0  0  0
  6 29  1  0  0  0
  6 30  1  0  0  0
  6 31  1  0  0  0
  7 32  1  0  0  0
  7 33  1  0  0  0
  8  7  1  0  0  0
  8 34  1  0  0  0
  8 35  1  0  0  0
  9  8  1  0  0  0
  9 10  1  0  0  0
  9 36  1  0  0  0
  9 37  1  0  0  0
 10 11  1  0  0  0
 10 25  1  0  0  0
 11 12  2  0  0  0
 12 19  1  0  0  0
 12 13  1  0  0  0
 13 14  2  0  0  0
 14  1  1  0  0  0
 14 38  1  0  0  0
 15 16  1  0  0  0
 15  1  2  0  0  0
 16 39  1  0  0  0
 17  2  2  0  0  0
 17 13  1  0  0  0
 18 17  1  0  0  0
 18 40  1  0  0  0
 19  3  2  0  0  0
 20 41  1  0  0  0
 21 20  2  0  0  0
 21 42  1  0  0  0
 23  5  1  0  0  0
 25  4  2  0  0  0
 25 19  1  0  0  0
M  END
$$$$
