REMARK  8 active torsions:
REMARK  status: ('A' for Active; 'I' for Inactive)
REMARK    1  A    between atoms: C_1  and  C_2 
REMARK    2  A    between atoms: C_2  and  C_4 
REMARK    3  A    between atoms: C_2  and  C_3 
REMARK    4  A    between atoms: N_5  and  C_4 
REMARK    5  A    between atoms: C_9  and  C_10 
REMARK    6  A    between atoms: C_19  and  C_18 
REMARK    7  A    between atoms: O_23  and  C_22 
REMARK    8  A    between atoms: C_25  and  O_26 
ROOT
ATOM      1  N   LIG d   1       0.939  -0.802  -0.306  0.00  0.00    -0.290 N 
ATOM      2  N   LIG d   1      -0.417  -1.140  -0.262  0.00  0.00    -0.296 N 
ATOM      3  HN  LIG d   1      -0.789  -2.083  -0.376  1.00  0.00     0.187 HD
ATOM      4  C   LIG d   1       1.075   0.549  -0.109  0.00  0.00     0.078 A 
ATOM      5  C   LIG d   1       2.171   1.407  -0.052  0.00  0.00     0.077 A 
ATOM      6  C   LIG d   1       1.975   2.751   0.166  0.00  0.00    -0.066 A 
ATOM      7  C   LIG d   1       0.694   3.262   0.329  0.00  0.00    -0.081 A 
ATOM      8  C   LIG d   1      -0.395   2.439   0.277  0.00  0.00    -0.069 A 
ATOM      9  C   LIG d   1      -0.221   1.071   0.056  0.00  0.00     0.022 A 
ATOM     10  C   LIG d   1      -1.140  -0.067  -0.052  0.00  0.00     0.073 A 
ATOM     11  H   LIG d   1       2.788   3.386   0.209  0.00  0.00     0.084 H 
ATOM     12  H   LIG d   1       0.564   4.273   0.491  0.00  0.00     0.083 H 
ATOM     13  H   LIG d   1      -1.343   2.827   0.401  0.00  0.00     0.085 H 
ENDROOT
BRANCH   1  14
ATOM     14  C   LIG d   1       2.041  -1.742  -0.522  0.00  0.00     0.018 C 
ATOM     15  H   LIG d   1       1.738  -2.492  -1.222  0.00  0.00     0.067 H 
ATOM     16  H   LIG d   1       2.889  -1.215  -0.908  0.00  0.00     0.067 H 
BRANCH  14  17
ATOM     17  C   LIG d   1       2.414  -2.405   0.806  0.00  0.00    -0.044 C 
ATOM     18  H   LIG d   1       2.624  -1.650   1.535  0.00  0.00     0.041 H 
BRANCH  17  19
ATOM     19  C   LIG d   1       1.248  -3.270   1.289  0.00  0.00    -0.072 C 
ATOM     20  H   LIG d   1       0.382  -2.657   1.427  0.00  0.00     0.028 H 
ATOM     21  H   LIG d   1       1.508  -3.733   2.218  0.00  0.00     0.028 H 
ATOM     22  H   LIG d   1       1.038  -4.025   0.560  0.00  0.00     0.028 H 
ENDBRANCH  17  19
BRANCH  17  23
ATOM     23  C   LIG d   1       3.652  -3.282   0.609  0.00  0.00    -0.072 C 
ATOM     24  H   LIG d   1       3.442  -4.037  -0.119  0.00  0.00     0.028 H 
ATOM     25  H   LIG d   1       3.913  -3.745   1.538  0.00  0.00     0.028 H 
ATOM     26  H   LIG d   1       4.467  -2.677   0.271  0.00  0.00     0.028 H 
ENDBRANCH  17  23
ENDBRANCH  14  17
ENDBRANCH   1  14
BRANCH  10  27
ATOM     27  C   LIG d   1      -2.616  -0.014   0.058  0.00  0.00     0.026 A 
ATOM     28  C   LIG d   1      -3.214   0.700   1.096  0.00  0.00    -0.065 A 
ATOM     29  C   LIG d   1      -4.589   0.748   1.196  0.00  0.00    -0.050 A 
ATOM     30  H   LIG d   1      -2.628   1.192   1.789  0.00  0.00     0.085 H 
ATOM     31  C   LIG d   1      -5.381   0.087   0.266  0.00  0.00     0.068 A 
ATOM     32  H   LIG d   1      -5.031   1.277   1.964  0.00  0.00     0.087 H 
ATOM     33  C   LIG d   1      -4.793  -0.626  -0.769  0.00  0.00    -0.018 A 
ATOM     34  C   LIG d   1      -3.415  -0.675  -0.882  0.00  0.00     0.081 A 
ATOM     35  H   LIG d   1      -5.384  -1.120  -1.455  0.00  0.00     0.092 H 
BRANCH  31  36
ATOM     36  O   LIG d   1      -6.734   0.138   0.371  0.00  0.00    -0.361 OA
ATOM     37  H   LIG d   1      -7.132   0.619   1.070  0.00  0.00     0.217 HD
ENDBRANCH  31  36
BRANCH  34  38
ATOM     38  O   LIG d   1      -2.838  -1.372  -1.895  0.00  0.00    -0.360 OA
ATOM     39  H   LIG d   1      -3.374  -1.814  -2.524  0.00  0.00     0.217 HD
ENDBRANCH  34  38
ENDBRANCH  10  27
BRANCH   5  40
ATOM     40  C   LIG d   1       3.566   0.864  -0.228  0.00  0.00     0.419 C 
ATOM     41  F   LIG d   1       4.496   1.886  -0.002  0.00  0.00    -0.166 F 
ATOM     42  F   LIG d   1       3.782  -0.173   0.686  0.00  0.00    -0.166 F 
ATOM     43  F   LIG d   1       3.717   0.377  -1.531  0.00  0.00    -0.166 F 
ENDBRANCH   5  40
TORSDOF 8
