1GR
  CCTOOLS-0322131036

 42 44  0  0  0  0  0  0  0  0999 V2000
    1.2480   -3.2700    1.2890 C   0  0  0  0  0
    2.4140   -2.4050    0.8060 C   0  0  0  0  0
    3.6520   -3.2820    0.6090 C   0  0  0  0  0
    2.0410   -1.7420   -0.5220 C   0  0  0  0  0
    0.9390   -0.8020   -0.3060 N   0  0  0  0  0
   -0.4170   -1.1400   -0.2620 N   0  0  0  0  0
    1.0750    0.5490   -0.1090 C   0  0  0  0  0
    2.1710    1.4070   -0.0520 C   0  0  0  0  0
    3.5660    0.8640   -0.2280 C   0  0  0  0  0
    3.7170    0.3770   -1.5310 F   0  0  0  0  0
    4.4960    1.8860   -0.0020 F   0  0  0  0  0
    3.7820   -0.1730    0.6860 F   0  0  0  0  0
    1.9750    2.7510    0.1660 C   0  0  0  0  0
    0.6940    3.2620    0.3290 C   0  0  0  0  0
   -0.3950    2.4390    0.2770 C   0  0  0  0  0
   -0.2210    1.0710    0.0560 C   0  0  0  0  0
   -1.1400   -0.0670   -0.0520 C   0  0  0  0  0
   -2.6160   -0.0140    0.0580 C   0  0  0  0  0
   -3.2140    0.7000    1.0960 C   0  0  0  0  0
   -4.5890    0.7480    1.1960 C   0  0  0  0  0
   -5.3810    0.0870    0.2660 C   0  0  0  0  0
   -6.7340    0.1380    0.3710 O   0  0  0  0  0
   -4.7930   -0.6260   -0.7690 C   0  0  0  0  0
   -3.4150   -0.6750   -0.8820 C   0  0  0  0  0
   -2.8380   -1.3720   -1.8950 O   0  0  0  0  0
    0.9720   -3.9770    0.5070 H   0  0  0  0  0
    1.5480   -3.8160    2.1830 H   0  0  0  0  0
    0.3950   -2.6330    1.5210 H   0  0  0  0  0
    2.6280   -1.6360    1.5480 H   0  0  0  0  0
    3.4380   -4.0510   -0.1340 H   0  0  0  0  0
    4.4830   -2.6650    0.2640 H   0  0  0  0  0
    3.9180   -3.7540    1.5550 H   0  0  0  0  0
    2.9050   -1.2060   -0.9150 H   0  0  0  0  0
    1.7320   -2.5060   -1.2350 H   0  0  0  0  0
    2.8250    3.4150    0.2110 H   0  0  0  0  0
    0.5570    4.3200    0.4990 H   0  0  0  0  0
   -1.3870    2.8450    0.4050 H   0  0  0  0  0
   -2.6010    1.2150    1.8210 H   0  0  0  0  0
   -5.0510    1.3010    2.0010 H   0  0  0  0  0
   -7.1380    0.8780   -0.1040 H   0  0  0  0  0
   -5.4120   -1.1390   -1.4900 H   0  0  0  0  0
   -2.6870   -0.8500   -2.6950 H   0  0  0  0  0
  1  2  1  0  0  0
  1 26  1  0  0  0
  1 27  1  0  0  0
  1 28  1  0  0  0
  2  4  1  0  0  0
  2  3  1  0  0  0
  2 29  1  0  0  0
  3 30  1  0  0  0
  3 31  1  0  0  0
  3 32  1  0  0  0
  4 33  1  0  0  0
  4 34  1  0  0  0
  5  4  1  0  0  0
  6  5  1  0  0  0
  7  5  1  0  0  0
  7  8  2  0  0  0
  8  9  1  0  0  0
  9 11  1  0  0  0
  9 12  1  0  0  0
  9 10  1  0  0  0
 13  8  1  0  0  0
 13 35  1  0  0  0
 14 13  2  0  0  0
 14 36  1  0  0  0
 15 16  2  0  0  0
 15 14  1  0  0  0
 15 37  1  0  0  0
 16  7  1  0  0  0
 17 16  1  0  0  0
 17  6  2  0  0  0
 18 17  1  0  0  0
 19 18  2  0  0  0
 19 38  1  0  0  0
 20 19  1  0  0  0
 20 39  1  0  0  0
 21 20  2  0  0  0
 21 23  1  0  0  0
 22 21  1  0  0  0
 22 40  1  0  0  0
 23 24  2  0  0  0
 23 41  1  0  0  0
 24 18  1  0  0  0
 24 25  1  0  0  0
 25 42  1  0  0  0
M  END
$$$$
