@<TRIPOS>MOLECULE
1GR
 42 44 0 0 0
SMALL
GASTEIGER

@<TRIPOS>ATOM
      1 C           1.2480   -3.2700    1.2890 C.3     1  LIG1       -0.0610
      2 C           2.4140   -2.4050    0.8060 C.3     1  LIG1       -0.0271
      3 C           3.6520   -3.2820    0.6090 C.3     1  LIG1       -0.0610
      4 C           2.0410   -1.7420   -0.5220 C.3     1  LIG1        0.0445
      5 N           0.9390   -0.8020   -0.3060 N.ar    1  LIG1       -0.2623
      6 N          -0.4170   -1.1400   -0.2620 N.ar    1  LIG1       -0.1699
      7 C           1.0750    0.5490   -0.1090 C.ar    1  LIG1        0.0811
      8 C           2.1710    1.4070   -0.0520 C.ar    1  LIG1        0.0804
      9 C           3.5660    0.8640   -0.2280 C.3     1  LIG1        0.4194
     10 F           3.7170    0.3770   -1.5310 F       1  LIG1       -0.1658
     11 F           4.4960    1.8860   -0.0020 F       1  LIG1       -0.1658
     12 F           3.7820   -0.1730    0.6860 F       1  LIG1       -0.1658
     13 C           1.9750    2.7510    0.1660 C.ar    1  LIG1       -0.0480
     14 C           0.6940    3.2620    0.3290 C.ar    1  LIG1       -0.0605
     15 C          -0.3950    2.4390    0.2770 C.ar    1  LIG1       -0.0504
     16 C          -0.2210    1.0710    0.0560 C.ar    1  LIG1        0.0283
     17 C          -1.1400   -0.0670   -0.0520 C.ar    1  LIG1        0.1039
     18 C          -2.6160   -0.0140    0.0580 C.ar    1  LIG1        0.0443
     19 C          -3.2140    0.7000    1.0960 C.ar    1  LIG1       -0.0455
     20 C          -4.5890    0.7480    1.1960 C.ar    1  LIG1       -0.0193
     21 C          -5.3810    0.0870    0.2660 C.ar    1  LIG1        0.1204
     22 O          -6.7340    0.1380    0.3710 O.3     1  LIG1       -0.5066
     23 C          -4.7930   -0.6260   -0.7690 C.ar    1  LIG1        0.0220
     24 C          -3.4150   -0.6750   -0.8820 C.ar    1  LIG1        0.1295
     25 O          -2.8380   -1.3720   -1.8950 O.3     1  LIG1       -0.5060
     26 H           0.3821   -2.6567    1.4268 H       1  LIG1        0.0233
     27 H           1.5084   -3.7333    2.2177 H       1  LIG1        0.0233
     28 H           1.0381   -4.0249    0.5603 H       1  LIG1        0.0233
     29 H           2.6244   -1.6501    1.5346 H       1  LIG1        0.0313
     30 H           3.4420   -4.0370   -0.1195 H       1  LIG1        0.0233
     31 H           3.9125   -3.7452    1.5377 H       1  LIG1        0.0233
     32 H           4.4674   -2.6772    0.2710 H       1  LIG1        0.0233
     33 H           1.7379   -2.4920   -1.2223 H       1  LIG1        0.0511
     34 H           2.8886   -1.2152   -0.9080 H       1  LIG1        0.0511
     35 H           2.7877    3.3856    0.2088 H       1  LIG1        0.0624
     36 H           0.5636    4.2728    0.4909 H       1  LIG1        0.0618
     37 H          -1.3433    2.8269    0.4006 H       1  LIG1        0.0625
     38 H          -2.6283    1.1921    1.7888 H       1  LIG1        0.0626
     39 H          -5.0306    1.2768    1.9644 H       1  LIG1        0.0654
     40 H          -7.1319    0.6192    1.0696 H       1  LIG1        0.2921
     41 H          -5.3843   -1.1203   -1.4553 H       1  LIG1        0.0691
     42 H          -3.3736   -1.8143   -2.5239 H       1  LIG1        0.2922
@<TRIPOS>BOND
     1     1     2    1
     2     2     4    1
     3     2     3    1
     4     5     4    1
     5     6     5   ar
     6     7     5   ar
     7     7     8   ar
     8     8     9    1
     9     9    11    1
    10     9    12    1
    11     9    10    1
    12    13     8   ar
    13    14    13   ar
    14    15    16   ar
    15    15    14   ar
    16    16     7   ar
    17    17    16   ar
    18    17     6   ar
    19    18    17    1
    20    19    18   ar
    21    20    19   ar
    22    21    20   ar
    23    21    23   ar
    24    22    21    1
    25    23    24   ar
    26    24    18   ar
    27    24    25    1
    28     1    26    1
    29     1    27    1
    30     1    28    1
    31     2    29    1
    32     3    30    1
    33     3    31    1
    34     3    32    1
    35     4    33    1
    36     4    34    1
    37    13    35    1
    38    14    36    1
    39    15    37    1
    40    19    38    1
    41    20    39    1
    42    22    40    1
    43    23    41    1
    44    25    42    1
