REMARK  8 active torsions:
REMARK  status: ('A' for Active; 'I' for Inactive)
REMARK    1  A    between atoms: C_1  and  C_2 
REMARK    2  A    between atoms: C_3  and  C_2 
REMARK    3  A    between atoms: C_4  and  C_2 
REMARK    4  A    between atoms: C_4  and  N_5 
REMARK    5  A    between atoms: C_9  and  C_10 
REMARK    6  A    between atoms: C_19  and  C_18 
REMARK    7  A    between atoms: O_23  and  C_22 
REMARK    8  A    between atoms: C_25  and  O_26 
ROOT
ATOM      1  N   LIG d   1       0.088  -1.019  -0.601  0.00  0.00    -0.290 N 
ATOM      2  N   LIG d   1      -1.308  -0.958  -0.522  0.00  0.00    -0.296 N 
ATOM      3  HN  LIG d   1      -1.943  -1.737  -0.696  1.00  0.00     0.187 HD
ATOM      4  C   LIG d   1      -1.674   0.266  -0.187  0.00  0.00     0.075 A 
ATOM      5  C   LIG d   1      -2.914   0.902   0.035  0.00  0.00     0.076 A 
ATOM      6  C   LIG d   1      -2.942   2.215   0.379  0.00  0.00    -0.066 A 
ATOM      7  C   LIG d   1      -1.772   2.962   0.520  0.00  0.00    -0.081 A 
ATOM      8  C   LIG d   1      -0.546   2.412   0.321  0.00  0.00    -0.069 A 
ATOM      9  C   LIG d   1      -0.443   1.056  -0.036  0.00  0.00     0.022 A 
ATOM     10  C   LIG d   1       0.617   0.186  -0.305  0.00  0.00     0.076 A 
ATOM     11  H   LIG d   1      -3.853   2.673   0.540  0.00  0.00     0.084 H 
ATOM     12  H   LIG d   1      -1.840   3.958   0.782  0.00  0.00     0.083 H 
ATOM     13  H   LIG d   1       0.305   2.986   0.431  0.00  0.00     0.085 H 
ENDROOT
BRANCH   1  14
ATOM     14  C   LIG d   1       0.860  -2.215  -0.948  0.00  0.00     0.018 C 
ATOM     15  H   LIG d   1       1.794  -1.923  -1.381  0.00  0.00     0.067 H 
ATOM     16  H   LIG d   1       0.309  -2.804  -1.652  0.00  0.00     0.067 H 
BRANCH  14  17
ATOM     17  C   LIG d   1       1.118  -3.039   0.315  0.00  0.00    -0.044 C 
ATOM     18  H   LIG d   1       1.583  -2.421   1.055  0.00  0.00     0.041 H 
BRANCH  17  19
ATOM     19  C   LIG d   1      -0.210  -3.572   0.857  0.00  0.00    -0.072 C 
ATOM     20  H   LIG d   1      -0.029  -4.148   1.740  0.00  0.00     0.028 H 
ATOM     21  H   LIG d   1      -0.675  -4.190   0.117  0.00  0.00     0.028 H 
ATOM     22  H   LIG d   1      -0.854  -2.751   1.093  0.00  0.00     0.028 H 
ENDBRANCH  17  19
BRANCH  17  23
ATOM     23  C   LIG d   1       2.039  -4.213  -0.021  0.00  0.00    -0.072 C 
ATOM     24  H   LIG d   1       1.574  -4.831  -0.761  0.00  0.00     0.028 H 
ATOM     25  H   LIG d   1       2.220  -4.789   0.863  0.00  0.00     0.028 H 
ATOM     26  H   LIG d   1       2.968  -3.841  -0.400  0.00  0.00     0.028 H 
ENDBRANCH  17  23
ENDBRANCH  14  17
ENDBRANCH   1  14
BRANCH  10  27
ATOM     27  C   LIG d   1       2.051   0.525  -0.274  0.00  0.00     0.026 A 
ATOM     28  C   LIG d   1       2.709   0.900  -1.448  0.00  0.00    -0.065 A 
ATOM     29  C   LIG d   1       4.050   1.216  -1.415  0.00  0.00    -0.050 A 
ATOM     30  H   LIG d   1       2.191   0.940  -2.340  0.00  0.00     0.085 H 
ATOM     31  C   LIG d   1       4.751   1.164  -0.216  0.00  0.00     0.068 A 
ATOM     32  H   LIG d   1       4.535   1.492  -2.283  0.00  0.00     0.087 H 
ATOM     33  C   LIG d   1       4.107   0.793   0.955  0.00  0.00    -0.018 A 
ATOM     34  C   LIG d   1       2.759   0.479   0.935  0.00  0.00     0.081 A 
ATOM     35  H   LIG d   1       4.633   0.751   1.842  0.00  0.00     0.092 H 
BRANCH  31  36
ATOM     36  O   LIG d   1       6.074   1.472  -0.192  0.00  0.00    -0.361 OA
ATOM     37  H   LIG d   1       6.548   1.438   0.615  0.00  0.00     0.217 HD
ENDBRANCH  31  36
BRANCH  34  38
ATOM     38  O   LIG d   1       2.127   0.116   2.081  0.00  0.00    -0.360 OA
ATOM     39  H   LIG d   1       2.602   0.086   2.888  0.00  0.00     0.217 HD
ENDBRANCH  34  38
ENDBRANCH  10  27
BRANCH   5  40
ATOM     40  C   LIG d   1      -4.200   0.128  -0.108  0.00  0.00     0.419 C 
ATOM     41  F   LIG d   1      -5.284   0.971   0.161  0.00  0.00    -0.166 F 
ATOM     42  F   LIG d   1      -4.304  -0.365  -1.413  0.00  0.00    -0.166 F 
ATOM     43  F   LIG d   1      -4.204  -0.940   0.796  0.00  0.00    -0.166 F 
ENDBRANCH   5  40
TORSDOF 8
