@<TRIPOS>MOLECULE
1GS
 42 44 0 0 0
SMALL
GASTEIGER

@<TRIPOS>ATOM
      1 C          -0.2100   -3.5720    0.8570 C.3     1  LIG1       -0.0610
      2 C           1.1180   -3.0390    0.3150 C.3     1  LIG1       -0.0271
      3 C           2.0390   -4.2130   -0.0210 C.3     1  LIG1       -0.0610
      4 C           0.8600   -2.2150   -0.9480 C.3     1  LIG1        0.0445
      5 N           0.0880   -1.0190   -0.6010 N.ar    1  LIG1       -0.2622
      6 N          -1.3080   -0.9580   -0.5220 N.ar    1  LIG1       -0.1701
      7 C          -1.6740    0.2660   -0.1870 C.ar    1  LIG1        0.1050
      8 C          -2.9140    0.9020    0.0350 C.ar    1  LIG1        0.0824
      9 C          -4.2000    0.1280   -0.1080 C.3     1  LIG1        0.4194
     10 F          -4.3040   -0.3650   -1.4130 F       1  LIG1       -0.1658
     11 F          -4.2040   -0.9400    0.7960 F       1  LIG1       -0.1658
     12 F          -5.2840    0.9710    0.1610 F       1  LIG1       -0.1658
     13 C          -2.9420    2.2150    0.3790 C.ar    1  LIG1       -0.0480
     14 C          -1.7720    2.9620    0.5200 C.ar    1  LIG1       -0.0605
     15 C          -0.5460    2.4120    0.3210 C.ar    1  LIG1       -0.0504
     16 C          -0.4430    1.0560   -0.0360 C.ar    1  LIG1        0.0283
     17 C           0.6170    0.1860   -0.3050 C.ar    1  LIG1        0.0801
     18 C           2.0510    0.5250   -0.2740 C.ar    1  LIG1        0.0423
     19 C           2.7090    0.9000   -1.4480 C.ar    1  LIG1       -0.0456
     20 C           4.0500    1.2160   -1.4150 C.ar    1  LIG1       -0.0193
     21 C           4.7510    1.1640   -0.2160 C.ar    1  LIG1        0.1204
     22 O           6.0740    1.4720   -0.1920 O.3     1  LIG1       -0.5066
     23 C           4.1070    0.7930    0.9550 C.ar    1  LIG1        0.0220
     24 C           2.7590    0.4790    0.9350 C.ar    1  LIG1        0.1295
     25 O           2.1270    0.1160    2.0810 O.3     1  LIG1       -0.5060
     26 H          -0.0292   -4.1482    1.7403 H       1  LIG1        0.0233
     27 H          -0.6750   -4.1896    0.1172 H       1  LIG1        0.0233
     28 H          -0.8544   -2.7509    1.0925 H       1  LIG1        0.0233
     29 H           1.5829   -2.4211    1.0546 H       1  LIG1        0.0313
     30 H           1.5740   -4.8308   -0.7606 H       1  LIG1        0.0233
     31 H           2.2196   -4.7889    0.8625 H       1  LIG1        0.0233
     32 H           2.9677   -3.8406   -0.4000 H       1  LIG1        0.0233
     33 H           1.7941   -1.9235   -1.3808 H       1  LIG1        0.0511
     34 H           0.3093   -2.8035   -1.6518 H       1  LIG1        0.0511
     35 H          -3.8528    2.6727    0.5405 H       1  LIG1        0.0624
     36 H          -1.8398    3.9578    0.7822 H       1  LIG1        0.0618
     37 H           0.3046    2.9859    0.4312 H       1  LIG1        0.0625
     38 H           2.1910    0.9404   -2.3397 H       1  LIG1        0.0626
     39 H           4.5351    1.4920   -2.2831 H       1  LIG1        0.0654
     40 H           6.5485    1.4376    0.6153 H       1  LIG1        0.2921
     41 H           4.6331    0.7510    1.8418 H       1  LIG1        0.0691
     42 H           2.6016    0.0857    2.8884 H       1  LIG1        0.2922
@<TRIPOS>BOND
     1     1     2    1
     2     3     2    1
     3     4     5    1
     4     4     2    1
     5     5     6   ar
     6     6     7   ar
     7     7     8   ar
     8     8     9    1
     9     9    12    1
    10     9    10    1
    11    11     9    1
    12    13     8   ar
    13    14    13   ar
    14    15    16   ar
    15    15    14   ar
    16    16     7   ar
    17    17     5   ar
    18    17    16   ar
    19    18    17    1
    20    19    18   ar
    21    20    19   ar
    22    21    23   ar
    23    21    20   ar
    24    22    21    1
    25    23    24   ar
    26    24    25    1
    27    24    18   ar
    28     1    26    1
    29     1    27    1
    30     1    28    1
    31     2    29    1
    32     3    30    1
    33     3    31    1
    34     3    32    1
    35     4    33    1
    36     4    34    1
    37    13    35    1
    38    14    36    1
    39    15    37    1
    40    19    38    1
    41    20    39    1
    42    22    40    1
    43    23    41    1
    44    25    42    1
