1GS
  CCTOOLS-0322131036

 42 44  0  0  0  0  0  0  0  0999 V2000
   -0.2100   -3.5720    0.8570 C   0  0  0  0  0
    1.1180   -3.0390    0.3150 C   0  0  0  0  0
    2.0390   -4.2130   -0.0210 C   0  0  0  0  0
    0.8600   -2.2150   -0.9480 C   0  0  0  0  0
    0.0880   -1.0190   -0.6010 N   0  0  0  0  0
   -1.3080   -0.9580   -0.5220 N   0  0  0  0  0
   -1.6740    0.2660   -0.1870 C   0  0  0  0  0
   -2.9140    0.9020    0.0350 C   0  0  0  0  0
   -4.2000    0.1280   -0.1080 C   0  0  0  0  0
   -4.3040   -0.3650   -1.4130 F   0  0  0  0  0
   -4.2040   -0.9400    0.7960 F   0  0  0  0  0
   -5.2840    0.9710    0.1610 F   0  0  0  0  0
   -2.9420    2.2150    0.3790 C   0  0  0  0  0
   -1.7720    2.9620    0.5200 C   0  0  0  0  0
   -0.5460    2.4120    0.3210 C   0  0  0  0  0
   -0.4430    1.0560   -0.0360 C   0  0  0  0  0
    0.6170    0.1860   -0.3050 C   0  0  0  0  0
    2.0510    0.5250   -0.2740 C   0  0  0  0  0
    2.7090    0.9000   -1.4480 C   0  0  0  0  0
    4.0500    1.2160   -1.4150 C   0  0  0  0  0
    4.7510    1.1640   -0.2160 C   0  0  0  0  0
    6.0740    1.4720   -0.1920 O   0  0  0  0  0
    4.1070    0.7930    0.9550 C   0  0  0  0  0
    2.7590    0.4790    0.9350 C   0  0  0  0  0
    2.1270    0.1160    2.0810 O   0  0  0  0  0
   -0.7330   -4.1120    0.0680 H   0  0  0  0  0
   -0.0180   -4.2440    1.6930 H   0  0  0  0  0
   -0.8250   -2.7380    1.1950 H   0  0  0  0  0
    1.5920   -2.4100    1.0690 H   0  0  0  0  0
    1.5660   -4.8420   -0.7750 H   0  0  0  0  0
    2.9860   -3.8340   -0.4070 H   0  0  0  0  0
    2.2230   -4.8000    0.8790 H   0  0  0  0  0
    1.8120   -1.9180   -1.3880 H   0  0  0  0  0
    0.3000   -2.8150   -1.6650 H   0  0  0  0  0
   -3.8960    2.6940    0.5470 H   0  0  0  0  0
   -1.8430    4.0040    0.7950 H   0  0  0  0  0
    0.3440    3.0120    0.4380 H   0  0  0  0  0
    2.1680    0.9410   -2.3820 H   0  0  0  0  0
    4.5580    1.5050   -2.3230 H   0  0  0  0  0
    6.6570    0.7150   -0.3430 H   0  0  0  0  0
    4.6560    0.7540    1.8840 H   0  0  0  0  0
    1.7450    0.8570    2.5710 H   0  0  0  0  0
  1  2  1  0  0  0
  1 26  1  0  0  0
  1 27  1  0  0  0
  1 28  1  0  0  0
  2 29  1  0  0  0
  3  2  1  0  0  0
  3 30  1  0  0  0
  3 31  1  0  0  0
  3 32  1  0  0  0
  4  5  1  0  0  0
  4  2  1  0  0  0
  4 33  1  0  0  0
  4 34  1  0  0  0
  5  6  1  0  0  0
  6  7  2  0  0  0
  7  8  1  0  0  0
  8  9  1  0  0  0
  9 12  1  0  0  0
  9 10  1  0  0  0
 11  9  1  0  0  0
 13  8  2  0  0  0
 13 35  1  0  0  0
 14 13  1  0  0  0
 14 36  1  0  0  0
 15 16  1  0  0  0
 15 14  2  0  0  0
 15 37  1  0  0  0
 16  7  1  0  0  0
 17  5  1  0  0  0
 17 16  2  0  0  0
 18 17  1  0  0  0
 19 18  1  0  0  0
 19 38  1  0  0  0
 20 19  2  0  0  0
 20 39  1  0  0  0
 21 23  2  0  0  0
 21 20  1  0  0  0
 22 21  1  0  0  0
 22 40  1  0  0  0
 23 24  1  0  0  0
 23 41  1  0  0  0
 24 25  1  0  0  0
 24 18  2  0  0  0
 25 42  1  0  0  0
M  END
$$$$
