@<TRIPOS>MOLECULE
1GT
 40 42 0 0 0
SMALL
GASTEIGER

@<TRIPOS>ATOM
      1 C          -3.5360    4.4980   -0.1900 C.2     1  LIG1       -0.1026
      2 C          -3.6010    3.1960   -0.0610 C.2     1  LIG1       -0.0894
      3 C          -2.3950    2.3470   -0.3720 C.3     1  LIG1       -0.0153
      4 C          -2.0620    1.4720    0.8380 C.3     1  LIG1        0.0456
      5 N          -0.9110    0.6220    0.5230 N.ar    1  LIG1       -0.2623
      6 N           0.4300    1.0130    0.6020 N.ar    1  LIG1       -0.1699
      7 C           1.2080    0.0170    0.2550 C.ar    1  LIG1        0.1039
      8 C           2.6880    0.0390    0.2050 C.ar    1  LIG1        0.0443
      9 C           3.4210   -1.0130    0.7500 C.ar    1  LIG1       -0.0455
     10 C           4.8000   -0.9910    0.7020 C.ar    1  LIG1       -0.0193
     11 C           5.4600    0.0780    0.1110 C.ar    1  LIG1        0.1204
     12 O           6.8180    0.0940    0.0670 O.3     1  LIG1       -0.5066
     13 C           4.7380    1.1290   -0.4350 C.ar    1  LIG1        0.0220
     14 C           3.3550    1.1130   -0.3960 C.ar    1  LIG1        0.1295
     15 O           2.6460    2.1410   -0.9300 O.3     1  LIG1       -0.5060
     16 C           0.3450   -1.1210   -0.0820 C.ar    1  LIG1        0.0283
     17 C           0.5890   -2.4270   -0.5110 C.ar    1  LIG1       -0.0504
     18 C          -0.4580   -3.2710   -0.7470 C.ar    1  LIG1       -0.0605
     19 C          -1.7660   -2.8430   -0.5630 C.ar    1  LIG1       -0.0480
     20 C          -2.0320   -1.5600   -0.1400 C.ar    1  LIG1        0.0804
     21 C          -3.4550   -1.1070    0.0560 C.3     1  LIG1        0.4194
     22 F          -3.6860    0.0470   -0.7000 F       1  LIG1       -0.1658
     23 F          -4.3280   -2.1180   -0.3600 F       1  LIG1       -0.1658
     24 F          -3.6740   -0.8300    1.4090 F       1  LIG1       -0.1658
     25 C          -0.9780   -0.6840    0.1110 C.ar    1  LIG1        0.0812
     26 H          -4.3616    5.0795    0.0229 H       1  LIG1        0.0532
     27 H          -2.6592    4.9422   -0.5045 H       1  LIG1        0.0532
     28 H          -4.4777    2.7517    0.2535 H       1  LIG1        0.0567
     29 H          -2.6056    1.7237   -1.2158 H       1  LIG1        0.0325
     30 H          -1.5613    2.9795   -0.5952 H       1  LIG1        0.0325
     31 H          -2.9047    0.8574    1.0767 H       1  LIG1        0.0512
     32 H          -1.8270    2.0952    1.6754 H       1  LIG1        0.0512
     33 H           2.9327   -1.8088    1.1896 H       1  LIG1        0.0626
     34 H           5.3418   -1.7708    1.1062 H       1  LIG1        0.0654
     35 H           7.3071   -0.6153    0.4354 H       1  LIG1        0.2921
     36 H           5.2326    1.9232   -0.8705 H       1  LIG1        0.0691
     37 H           3.0932    2.8595   -1.3321 H       1  LIG1        0.2922
     38 H           1.5581   -2.7536   -0.6494 H       1  LIG1        0.0625
     39 H          -0.2756   -4.2357   -1.0650 H       1  LIG1        0.0618
     40 H          -2.5466   -3.4930   -0.7451 H       1  LIG1        0.0624
@<TRIPOS>BOND
     1     1     2    2
     2     3     4    1
     3     3     2    1
     4     5     4    1
     5     6     5   ar
     6     7    16   ar
     7     7     6   ar
     8     8     7    1
     9     9     8   ar
    10    10     9   ar
    11    11    10   ar
    12    11    13   ar
    13    12    11    1
    14    13    14   ar
    15    14     8   ar
    16    14    15    1
    17    16    25   ar
    18    17    16   ar
    19    17    18   ar
    20    18    19   ar
    21    19    20   ar
    22    20    21    1
    23    21    23    1
    24    21    22    1
    25    24    21    1
    26    25     5   ar
    27    25    20   ar
    28     1    26    1
    29     1    27    1
    30     2    28    1
    31     3    29    1
    32     3    30    1
    33     4    31    1
    34     4    32    1
    35     9    33    1
    36    10    34    1
    37    12    35    1
    38    13    36    1
    39    15    37    1
    40    17    38    1
    41    18    39    1
    42    19    40    1
