1GT
  CCTOOLS-0322131036

 40 42  0  0  0  0  0  0  0  0999 V2000
   -3.5360    4.4980   -0.1900 C   0  0  0  0  0
   -3.6010    3.1960   -0.0610 C   0  0  0  0  0
   -2.3950    2.3470   -0.3720 C   0  0  0  0  0
   -2.0620    1.4720    0.8380 C   0  0  0  0  0
   -0.9110    0.6220    0.5230 N   0  0  0  0  0
    0.4300    1.0130    0.6020 N   0  0  0  0  0
    1.2080    0.0170    0.2550 C   0  0  0  0  0
    2.6880    0.0390    0.2050 C   0  0  0  0  0
    3.4210   -1.0130    0.7500 C   0  0  0  0  0
    4.8000   -0.9910    0.7020 C   0  0  0  0  0
    5.4600    0.0780    0.1110 C   0  0  0  0  0
    6.8180    0.0940    0.0670 O   0  0  0  0  0
    4.7380    1.1290   -0.4350 C   0  0  0  0  0
    3.3550    1.1130   -0.3960 C   0  0  0  0  0
    2.6460    2.1410   -0.9300 O   0  0  0  0  0
    0.3450   -1.1210   -0.0820 C   0  0  0  0  0
    0.5890   -2.4270   -0.5110 C   0  0  0  0  0
   -0.4580   -3.2710   -0.7470 C   0  0  0  0  0
   -1.7660   -2.8430   -0.5630 C   0  0  0  0  0
   -2.0320   -1.5600   -0.1400 C   0  0  0  0  0
   -3.4550   -1.1070    0.0560 C   0  0  0  0  0
   -3.6860    0.0470   -0.7000 F   0  0  0  0  0
   -4.3280   -2.1180   -0.3600 F   0  0  0  0  0
   -3.6740   -0.8300    1.4090 F   0  0  0  0  0
   -0.9780   -0.6840    0.1110 C   0  0  0  0  0
   -2.6180    4.9630   -0.5180 H   0  0  0  0  0
   -4.4010    5.1070    0.0290 H   0  0  0  0  0
   -4.5190    2.7310    0.2680 H   0  0  0  0  0
   -2.6100    1.7120   -1.2320 H   0  0  0  0  0
   -1.8220    2.1080    1.6910 H   0  0  0  0  0
   -2.9200    0.8460    1.0810 H   0  0  0  0  0
    2.9110   -1.8460    1.2110 H   0  0  0  0  0
    5.3670   -1.8070    1.1260 H   0  0  0  0  0
    7.1910   -0.3190   -0.7240 H   0  0  0  0  0
    5.2550    1.9590   -0.8950 H   0  0  0  0  0
    2.4230    2.0230   -1.8640 H   0  0  0  0  0
    1.6040   -2.7690   -0.6570 H   0  0  0  0  0
   -0.2670   -4.2810   -1.0790 H   0  0  0  0  0
   -2.5840   -3.5230   -0.7540 H   0  0  0  0  0
   -1.5460    2.9910   -0.6000 H   0  0  0  0  0
  1  2  2  0  0  0
  1 26  1  0  0  0
  1 27  1  0  0  0
  2 28  1  0  0  0
  3  4  1  0  0  0
  3  2  1  0  0  0
  3 29  1  0  0  0
  3 40  1  0  0  0
  4 30  1  0  0  0
  4 31  1  0  0  0
  5  4  1  0  0  0
  6  5  1  0  0  0
  7 16  1  0  0  0
  7  6  2  0  0  0
  8  7  1  0  0  0
  9  8  2  0  0  0
  9 32  1  0  0  0
 10  9  1  0  0  0
 10 33  1  0  0  0
 11 10  2  0  0  0
 11 13  1  0  0  0
 12 11  1  0  0  0
 12 34  1  0  0  0
 13 14  2  0  0  0
 13 35  1  0  0  0
 14  8  1  0  0  0
 14 15  1  0  0  0
 15 36  1  0  0  0
 16 25  1  0  0  0
 17 16  2  0  0  0
 17 18  1  0  0  0
 17 37  1  0  0  0
 18 19  2  0  0  0
 18 38  1  0  0  0
 19 20  1  0  0  0
 19 39  1  0  0  0
 20 21  1  0  0  0
 21 23  1  0  0  0
 21 22  1  0  0  0
 24 21  1  0  0  0
 25  5  1  0  0  0
 25 20  2  0  0  0
M  END
$$$$
