REMARK  7 active torsions:
REMARK  status: ('A' for Active; 'I' for Inactive)
REMARK    1  A    between atoms: C_3  and  C_2 
REMARK    2  A    between atoms: C_3  and  C_4 
REMARK    3  A    between atoms: N_5  and  C_4 
REMARK    4  A    between atoms: C_9  and  C_8 
REMARK    5  A    between atoms: O_13  and  C_12 
REMARK    6  A    between atoms: C_15  and  O_16 
REMARK    7  A    between atoms: C_21  and  C_22 
ROOT
ATOM      1  N   LIG d   1      -0.911   0.622   0.523  0.00  0.00    -0.290 N 
ATOM      2  N   LIG d   1       0.430   1.013   0.602  0.00  0.00    -0.296 N 
ATOM      3  HN  LIG d   1       0.754   1.937   0.888  1.00  0.00     0.187 HD
ATOM      4  C   LIG d   1       1.208   0.017   0.255  0.00  0.00     0.073 A 
ATOM      5  C   LIG d   1       0.345  -1.121  -0.082  0.00  0.00     0.022 A 
ATOM      6  C   LIG d   1       0.589  -2.427  -0.511  0.00  0.00    -0.069 A 
ATOM      7  C   LIG d   1      -0.458  -3.271  -0.747  0.00  0.00    -0.081 A 
ATOM      8  C   LIG d   1      -1.766  -2.843  -0.563  0.00  0.00    -0.066 A 
ATOM      9  C   LIG d   1      -2.032  -1.560  -0.140  0.00  0.00     0.077 A 
ATOM     10  C   LIG d   1      -0.978  -0.684   0.111  0.00  0.00     0.078 A 
ATOM     11  H   LIG d   1       1.558  -2.754  -0.649  0.00  0.00     0.085 H 
ATOM     12  H   LIG d   1      -0.276  -4.236  -1.065  0.00  0.00     0.083 H 
ATOM     13  H   LIG d   1      -2.547  -3.493  -0.745  0.00  0.00     0.084 H 
ENDROOT
BRANCH   4  14
ATOM     14  C   LIG d   1       2.688   0.039   0.205  0.00  0.00     0.026 A 
ATOM     15  C   LIG d   1       3.421  -1.013   0.750  0.00  0.00    -0.065 A 
ATOM     16  C   LIG d   1       4.800  -0.991   0.702  0.00  0.00    -0.050 A 
ATOM     17  H   LIG d   1       2.933  -1.809   1.190  0.00  0.00     0.085 H 
ATOM     18  C   LIG d   1       5.460   0.078   0.111  0.00  0.00     0.068 A 
ATOM     19  H   LIG d   1       5.342  -1.771   1.106  0.00  0.00     0.087 H 
ATOM     20  C   LIG d   1       4.738   1.129  -0.435  0.00  0.00    -0.018 A 
ATOM     21  C   LIG d   1       3.355   1.113  -0.396  0.00  0.00     0.081 A 
ATOM     22  H   LIG d   1       5.233   1.923  -0.871  0.00  0.00     0.092 H 
BRANCH  18  23
ATOM     23  O   LIG d   1       6.818   0.094   0.067  0.00  0.00    -0.361 OA
ATOM     24  H   LIG d   1       7.307  -0.615   0.435  0.00  0.00     0.217 HD
ENDBRANCH  18  23
BRANCH  21  25
ATOM     25  O   LIG d   1       2.646   2.141  -0.930  0.00  0.00    -0.360 OA
ATOM     26  H   LIG d   1       3.093   2.860  -1.332  0.00  0.00     0.217 HD
ENDBRANCH  21  25
ENDBRANCH   4  14
BRANCH   1  27
ATOM     27  C   LIG d   1      -2.062   1.472   0.838  0.00  0.00     0.018 C 
ATOM     28  H   LIG d   1      -2.905   0.857   1.077  0.00  0.00     0.067 H 
ATOM     29  H   LIG d   1      -1.827   2.095   1.675  0.00  0.00     0.067 H 
BRANCH  27  30
ATOM     30  C   LIG d   1      -2.395   2.347  -0.372  0.00  0.00    -0.034 C 
ATOM     31  H   LIG d   1      -2.606   1.724  -1.216  0.00  0.00     0.041 H 
ATOM     32  H   LIG d   1      -1.561   2.979  -0.595  0.00  0.00     0.041 H 
BRANCH  30  33
ATOM     33  C   LIG d   1      -3.601   3.196  -0.061  0.00  0.00    -0.110 C 
ATOM     34  C   LIG d   1      -3.536   4.498  -0.190  0.00  0.00    -0.125 C 
ATOM     35  H   LIG d   1      -4.362   5.080   0.023  0.00  0.00     0.066 H 
ATOM     36  H   LIG d   1      -2.659   4.942  -0.504  0.00  0.00     0.066 H 
ATOM     37  H   LIG d   1      -4.478   2.752   0.254  0.00  0.00     0.075 H 
ENDBRANCH  30  33
ENDBRANCH  27  30
ENDBRANCH   1  27
BRANCH   9  38
ATOM     38  C   LIG d   1      -3.455  -1.107   0.056  0.00  0.00     0.419 C 
ATOM     39  F   LIG d   1      -4.328  -2.118  -0.360  0.00  0.00    -0.166 F 
ATOM     40  F   LIG d   1      -3.686   0.047  -0.700  0.00  0.00    -0.166 F 
ATOM     41  F   LIG d   1      -3.674  -0.830   1.409  0.00  0.00    -0.166 F 
ENDBRANCH   9  38
TORSDOF 7
