1GU
  CCTOOLS-0322131036

 40 42  0  0  0  0  0  0  0  0999 V2000
    1.6800    5.3800    0.4120 C   0  0  0  0  0
    2.0690    4.1670    0.1070 C   0  0  0  0  0
    1.2150    2.9840    0.4850 C   0  0  0  0  0
    0.9140    2.1530   -0.7640 C   0  0  0  0  0
    0.0840    1.0030   -0.3960 N   0  0  0  0  0
   -1.3150    0.9930   -0.3810 N   0  0  0  0  0
   -1.7400   -0.2000   -0.0040 C   0  0  0  0  0
   -3.0110   -0.7820    0.1890 C   0  0  0  0  0
   -4.2600    0.0260   -0.0540 C   0  0  0  0  0
   -4.2680    1.1380    0.7950 F   0  0  0  0  0
   -4.2860    0.4550   -1.3850 F   0  0  0  0  0
   -5.3850   -0.7650    0.2040 F   0  0  0  0  0
   -3.1020   -2.0740    0.5940 C   0  0  0  0  0
   -1.9670   -2.8520    0.8280 C   0  0  0  0  0
   -0.7140   -2.3540    0.6620 C   0  0  0  0  0
   -0.5470   -1.0220    0.2430 C   0  0  0  0  0
    0.5550   -0.2060   -0.0270 C   0  0  0  0  0
    1.9740   -0.5960    0.0740 C   0  0  0  0  0
    2.6640   -0.4230    1.2770 C   0  0  0  0  0
    3.9890   -0.7890    1.3680 C   0  0  0  0  0
    4.6430   -1.3290    0.2670 C   0  0  0  0  0
    5.9510   -1.6820    0.3630 O   0  0  0  0  0
    3.9660   -1.5040   -0.9320 C   0  0  0  0  0
    2.6340   -1.1460   -1.0330 C   0  0  0  0  0
    1.9700   -1.3170   -2.2060 O   0  0  0  0  0
    0.7470    5.5330    0.9350 H   0  0  0  0  0
    2.2930    6.2280    0.1450 H   0  0  0  0  0
    3.0010    4.0150   -0.4160 H   0  0  0  0  0
    1.7470    2.3700    1.2110 H   0  0  0  0  0
    0.2800    3.3360    0.9220 H   0  0  0  0  0
    0.3820    2.7680   -1.4900 H   0  0  0  0  0
    1.8490    1.8020   -1.2010 H   0  0  0  0  0
   -4.0790   -2.5120    0.7390 H   0  0  0  0  0
   -2.0880   -3.8760    1.1500 H   0  0  0  0  0
    0.1470   -2.9770    0.8500 H   0  0  0  0  0
    2.1590   -0.0030    2.1340 H   0  0  0  0  0
    4.5220   -0.6550    2.2980 H   0  0  0  0  0
    6.5680   -0.9720    0.1380 H   0  0  0  0  0
    4.4790   -1.9240   -1.7840 H   0  0  0  0  0
    1.5400   -2.1800   -2.2920 H   0  0  0  0  0
  1 26  1  0  0  0
  1 27  1  0  0  0
  2  1  2  0  0  0
  2 28  1  0  0  0
  3  2  1  0  0  0
  3 29  1  0  0  0
  3 30  1  0  0  0
  4  3  1  0  0  0
  4  5  1  0  0  0
  4 31  1  0  0  0
  4 32  1  0  0  0
  5  6  1  0  0  0
  6  7  2  0  0  0
  7  8  1  0  0  0
  8  9  1  0  0  0
  9 12  1  0  0  0
  9 11  1  0  0  0
 10  9  1  0  0  0
 13  8  2  0  0  0
 13 33  1  0  0  0
 14 13  1  0  0  0
 14 34  1  0  0  0
 15 16  1  0  0  0
 15 14  2  0  0  0
 15 35  1  0  0  0
 16  7  1  0  0  0
 17  5  1  0  0  0
 17 16  2  0  0  0
 18 17  1  0  0  0
 19 18  1  0  0  0
 19 36  1  0  0  0
 20 19  2  0  0  0
 20 37  1  0  0  0
 21 23  2  0  0  0
 21 20  1  0  0  0
 22 21  1  0  0  0
 22 38  1  0  0  0
 23 24  1  0  0  0
 23 39  1  0  0  0
 24 25  1  0  0  0
 24 18  2  0  0  0
 25 40  1  0  0  0
M  END
$$$$
