@<TRIPOS>MOLECULE
1GU
 40 42 0 0 0
SMALL
GASTEIGER

@<TRIPOS>ATOM
      1 C           1.6800    5.3800    0.4120 C.2     1  LIG1       -0.1026
      2 C           2.0690    4.1670    0.1070 C.2     1  LIG1       -0.0894
      3 C           1.2150    2.9840    0.4850 C.3     1  LIG1       -0.0153
      4 C           0.9140    2.1530   -0.7640 C.3     1  LIG1        0.0456
      5 N           0.0840    1.0030   -0.3960 N.ar    1  LIG1       -0.2621
      6 N          -1.3150    0.9930   -0.3810 N.ar    1  LIG1       -0.1701
      7 C          -1.7400   -0.2000   -0.0040 C.ar    1  LIG1        0.1050
      8 C          -3.0110   -0.7820    0.1890 C.ar    1  LIG1        0.0824
      9 C          -4.2600    0.0260   -0.0540 C.3     1  LIG1        0.4194
     10 F          -4.2680    1.1380    0.7950 F       1  LIG1       -0.1658
     11 F          -4.2860    0.4550   -1.3850 F       1  LIG1       -0.1658
     12 F          -5.3850   -0.7650    0.2040 F       1  LIG1       -0.1658
     13 C          -3.1020   -2.0740    0.5940 C.ar    1  LIG1       -0.0480
     14 C          -1.9670   -2.8520    0.8280 C.ar    1  LIG1       -0.0605
     15 C          -0.7140   -2.3540    0.6620 C.ar    1  LIG1       -0.0504
     16 C          -0.5470   -1.0220    0.2430 C.ar    1  LIG1        0.0283
     17 C           0.5550   -0.2060   -0.0270 C.ar    1  LIG1        0.0801
     18 C           1.9740   -0.5960    0.0740 C.ar    1  LIG1        0.0423
     19 C           2.6640   -0.4230    1.2770 C.ar    1  LIG1       -0.0456
     20 C           3.9890   -0.7890    1.3680 C.ar    1  LIG1       -0.0193
     21 C           4.6430   -1.3290    0.2670 C.ar    1  LIG1        0.1204
     22 O           5.9510   -1.6820    0.3630 O.3     1  LIG1       -0.5066
     23 C           3.9660   -1.5040   -0.9320 C.ar    1  LIG1        0.0220
     24 C           2.6340   -1.1460   -1.0330 C.ar    1  LIG1        0.1295
     25 O           1.9700   -1.3170   -2.2060 O.3     1  LIG1       -0.5060
     26 H           2.2649    6.1899    0.1531 H       1  LIG1        0.0532
     27 H           0.7886    5.5258    0.9112 H       1  LIG1        0.0532
     28 H           2.9604    4.0213   -0.3922 H       1  LIG1        0.0567
     29 H           0.2973    3.3289    0.9137 H       1  LIG1        0.0325
     30 H           1.7368    2.3805    1.1980 H       1  LIG1        0.0325
     31 H           1.8316    1.8081   -1.1928 H       1  LIG1        0.0512
     32 H           0.3922    2.7564   -1.4771 H       1  LIG1        0.0512
     33 H          -4.0351   -2.4924    0.7327 H       1  LIG1        0.0624
     34 H          -2.0826   -3.8305    1.1349 H       1  LIG1        0.0618
     35 H           0.1097   -2.9491    0.8421 H       1  LIG1        0.0625
     36 H           2.1815   -0.0216    2.0962 H       1  LIG1        0.0626
     37 H           4.4977   -0.6617    2.2568 H       1  LIG1        0.0654
     38 H           6.3936   -2.0462   -0.3782 H       1  LIG1        0.2921
     39 H           4.4567   -1.9014   -1.7483 H       1  LIG1        0.0691
     40 H           2.4125   -1.6849   -2.9455 H       1  LIG1        0.2922
@<TRIPOS>BOND
     1     2     1    2
     2     3     2    1
     3     4     3    1
     4     4     5    1
     5     5     6   ar
     6     6     7   ar
     7     7     8   ar
     8     8     9    1
     9     9    12    1
    10     9    11    1
    11    10     9    1
    12    13     8   ar
    13    14    13   ar
    14    15    16   ar
    15    15    14   ar
    16    16     7   ar
    17    17     5   ar
    18    17    16   ar
    19    18    17    1
    20    19    18   ar
    21    20    19   ar
    22    21    23   ar
    23    21    20   ar
    24    22    21    1
    25    23    24   ar
    26    24    25    1
    27    24    18   ar
    28     1    26    1
    29     1    27    1
    30     2    28    1
    31     3    29    1
    32     3    30    1
    33     4    31    1
    34     4    32    1
    35    13    33    1
    36    14    34    1
    37    15    35    1
    38    19    36    1
    39    20    37    1
    40    22    38    1
    41    23    39    1
    42    25    40    1
