REMARK  7 active torsions:
REMARK  status: ('A' for Active; 'I' for Inactive)
REMARK    1  A    between atoms: C_3  and  C_2 
REMARK    2  A    between atoms: C_4  and  C_3 
REMARK    3  A    between atoms: C_4  and  N_5 
REMARK    4  A    between atoms: C_9  and  C_10 
REMARK    5  A    between atoms: C_19  and  C_18 
REMARK    6  A    between atoms: O_23  and  C_22 
REMARK    7  A    between atoms: C_25  and  O_26 
ROOT
ATOM      1  N   LIG d   1       0.084   1.003  -0.396  0.00  0.00    -0.290 N 
ATOM      2  N   LIG d   1      -1.315   0.993  -0.381  0.00  0.00    -0.296 N 
ATOM      3  HN  LIG d   1      -1.913   1.783  -0.623  1.00  0.00     0.187 HD
ATOM      4  C   LIG d   1      -1.740  -0.200  -0.004  0.00  0.00     0.075 A 
ATOM      5  C   LIG d   1      -3.011  -0.782   0.189  0.00  0.00     0.076 A 
ATOM      6  C   LIG d   1      -3.102  -2.074   0.594  0.00  0.00    -0.066 A 
ATOM      7  C   LIG d   1      -1.967  -2.852   0.828  0.00  0.00    -0.081 A 
ATOM      8  C   LIG d   1      -0.714  -2.354   0.662  0.00  0.00    -0.069 A 
ATOM      9  C   LIG d   1      -0.547  -1.022   0.243  0.00  0.00     0.022 A 
ATOM     10  C   LIG d   1       0.555  -0.206  -0.027  0.00  0.00     0.076 A 
ATOM     11  H   LIG d   1      -4.035  -2.492   0.733  0.00  0.00     0.084 H 
ATOM     12  H   LIG d   1      -2.083  -3.830   1.135  0.00  0.00     0.083 H 
ATOM     13  H   LIG d   1       0.110  -2.949   0.842  0.00  0.00     0.085 H 
ENDROOT
BRANCH  10  14
ATOM     14  C   LIG d   1       1.974  -0.596   0.074  0.00  0.00     0.026 A 
ATOM     15  C   LIG d   1       2.664  -0.423   1.277  0.00  0.00    -0.065 A 
ATOM     16  C   LIG d   1       3.989  -0.789   1.368  0.00  0.00    -0.050 A 
ATOM     17  H   LIG d   1       2.182  -0.022   2.096  0.00  0.00     0.085 H 
ATOM     18  C   LIG d   1       4.643  -1.329   0.267  0.00  0.00     0.068 A 
ATOM     19  H   LIG d   1       4.498  -0.662   2.257  0.00  0.00     0.087 H 
ATOM     20  C   LIG d   1       3.966  -1.504  -0.932  0.00  0.00    -0.018 A 
ATOM     21  C   LIG d   1       2.634  -1.146  -1.033  0.00  0.00     0.081 A 
ATOM     22  H   LIG d   1       4.457  -1.901  -1.748  0.00  0.00     0.092 H 
BRANCH  18  23
ATOM     23  O   LIG d   1       5.951  -1.682   0.363  0.00  0.00    -0.361 OA
ATOM     24  H   LIG d   1       6.394  -2.046  -0.378  0.00  0.00     0.217 HD
ENDBRANCH  18  23
BRANCH  21  25
ATOM     25  O   LIG d   1       1.970  -1.317  -2.206  0.00  0.00    -0.360 OA
ATOM     26  H   LIG d   1       2.413  -1.685  -2.946  0.00  0.00     0.217 HD
ENDBRANCH  21  25
ENDBRANCH  10  14
BRANCH   1  27
ATOM     27  C   LIG d   1       0.914   2.153  -0.764  0.00  0.00     0.018 C 
ATOM     28  H   LIG d   1       1.832   1.808  -1.193  0.00  0.00     0.067 H 
ATOM     29  H   LIG d   1       0.392   2.756  -1.477  0.00  0.00     0.067 H 
BRANCH  27  30
ATOM     30  C   LIG d   1       1.215   2.984   0.485  0.00  0.00    -0.034 C 
ATOM     31  H   LIG d   1       0.297   3.329   0.914  0.00  0.00     0.041 H 
ATOM     32  H   LIG d   1       1.737   2.381   1.198  0.00  0.00     0.041 H 
BRANCH  30  33
ATOM     33  C   LIG d   1       2.069   4.167   0.107  0.00  0.00    -0.110 C 
ATOM     34  C   LIG d   1       1.680   5.380   0.412  0.00  0.00    -0.125 C 
ATOM     35  H   LIG d   1       2.265   6.190   0.153  0.00  0.00     0.066 H 
ATOM     36  H   LIG d   1       0.789   5.526   0.911  0.00  0.00     0.066 H 
ATOM     37  H   LIG d   1       2.960   4.021  -0.392  0.00  0.00     0.075 H 
ENDBRANCH  30  33
ENDBRANCH  27  30
ENDBRANCH   1  27
BRANCH   5  38
ATOM     38  C   LIG d   1      -4.260   0.026  -0.054  0.00  0.00     0.419 C 
ATOM     39  F   LIG d   1      -5.385  -0.765   0.204  0.00  0.00    -0.166 F 
ATOM     40  F   LIG d   1      -4.286   0.455  -1.385  0.00  0.00    -0.166 F 
ATOM     41  F   LIG d   1      -4.268   1.138   0.795  0.00  0.00    -0.166 F 
ENDBRANCH   5  38
TORSDOF 7
