1GV
  CCTOOLS-0322131036

 37 39  0  0  0  0  0  0  0  0999 V2000
   -5.4340    0.1750   -0.1370 C   0  0  0  0  0
   -4.8650   -0.6780   -1.0740 C   0  0  0  0  0
   -3.5090   -0.9260   -1.0490 C   0  0  0  0  0
   -2.7080   -0.3170   -0.0800 C   0  0  0  0  0
   -3.2840    0.5400    0.8590 C   0  0  0  0  0
   -4.6410    0.7820    0.8270 C   0  0  0  0  0
   -1.2540   -0.5800   -0.0490 C   0  0  0  0  0
   -0.0030    0.6530    0.0260 S   0  0  0  0  0
    1.2550   -0.5760    0.0190 C   0  0  0  0  0
    0.6910   -1.8020   -0.0380 C   0  0  0  0  0
   -0.6840   -1.8040   -0.0690 C   0  0  0  0  0
    2.7070   -0.3090    0.0680 C   0  0  0  0  0
    3.5110   -0.9780    0.9930 C   0  0  0  0  0
    4.8660   -0.7260    1.0350 C   0  0  0  0  0
    5.4310    0.1910    0.1580 C   0  0  0  0  0
    4.6350    0.8580   -0.7630 C   0  0  0  0  0
    3.2800    0.6080   -0.8160 C   0  0  0  0  0
    6.7670    0.4380    0.2030 O   0  0  0  0  0
   -6.7700    0.4200   -0.1690 O   0  0  0  0  0
    2.4180    1.3280   -1.8200 C   0  0  0  0  0
   -2.4240    1.2000    1.9060 C   0  0  0  0  0
   -5.4850   -1.1490   -1.8220 H   0  0  0  0  0
   -3.0670   -1.5900   -1.7770 H   0  0  0  0  0
   -5.0880    1.4440    1.5540 H   0  0  0  0  0
    1.2740   -2.7100   -0.0520 H   0  0  0  0  0
   -1.2630   -2.7140   -0.1100 H   0  0  0  0  0
    3.0730   -1.6900    1.6760 H   0  0  0  0  0
    5.4890   -1.2420    1.7500 H   0  0  0  0  0
    5.0780    1.5710   -1.4430 H   0  0  0  0  0
    7.2920   -0.1370   -0.3700 H   0  0  0  0  0
   -7.0190    1.1740   -0.7210 H   0  0  0  0  0
    2.0490    2.2560   -1.3840 H   0  0  0  0  0
    3.0070    1.5530   -2.7090 H   0  0  0  0  0
    1.5740    0.6950   -2.0950 H   0  0  0  0  0
   -2.0600    2.1550    1.5280 H   0  0  0  0  0
   -3.0140    1.3670    2.8080 H   0  0  0  0  0
   -1.5770    0.5550    2.1400 H   0  0  0  0  0
  1  6  2  0  0  0
  1  2  1  0  0  0
  2  3  2  0  0  0
  2 22  1  0  0  0
  3  4  1  0  0  0
  3 23  1  0  0  0
  4  7  1  0  0  0
  5  4  2  0  0  0
  6  5  1  0  0  0
  6 24  1  0  0  0
  7  8  1  0  0  0
  7 11  2  0  0  0
  8  9  1  0  0  0
  9 12  1  0  0  0
 10  9  2  0  0  0
 10 25  1  0  0  0
 11 10  1  0  0  0
 11 26  1  0  0  0
 12 13  1  0  0  0
 13 14  2  0  0  0
 13 27  1  0  0  0
 14 28  1  0  0  0
 15 14  1  0  0  0
 15 18  1  0  0  0
 16 15  2  0  0  0
 16 29  1  0  0  0
 17 12  2  0  0  0
 17 16  1  0  0  0
 18 30  1  0  0  0
 19  1  1  0  0  0
 19 31  1  0  0  0
 20 17  1  0  0  0
 20 32  1  0  0  0
 20 33  1  0  0  0
 20 34  1  0  0  0
 21  5  1  0  0  0
 21 35  1  0  0  0
 21 36  1  0  0  0
 21 37  1  0  0  0
M  END
$$$$
