REMARK  6 active torsions:
REMARK  status: ('A' for Active; 'I' for Inactive)
REMARK    1  A    between atoms: O_19  and  C_1 
REMARK    2  A    between atoms: C_4  and  C_7 
REMARK    3  A    between atoms: C_21  and  C_5 
REMARK    4  A    between atoms: C_9  and  C_12 
REMARK    5  A    between atoms: C_15  and  O_18 
REMARK    6  A    between atoms: C_20  and  C_17 
ROOT
ATOM      1  C   LIG d   1      -1.254  -0.580  -0.049  0.00  0.00     0.016 A 
ATOM      2  S   LIG d   1      -0.003   0.653   0.026  0.00  0.00    -0.089 SA
ATOM      3  C   LIG d   1       1.255  -0.576   0.019  0.00  0.00     0.016 A 
ATOM      4  C   LIG d   1       0.691  -1.802  -0.038  0.00  0.00    -0.064 A 
ATOM      5  C   LIG d   1      -0.684  -1.804  -0.069  0.00  0.00    -0.064 A 
ATOM      6  H   LIG d   1       1.249  -2.670  -0.057  0.00  0.00     0.085 H 
ATOM      7  H   LIG d   1      -1.238  -2.674  -0.105  0.00  0.00     0.085 H 
ENDROOT
BRANCH   1   8
ATOM      8  C   LIG d   1      -2.708  -0.317  -0.080  0.00  0.00    -0.013 A 
ATOM      9  C   LIG d   1      -3.509  -0.926  -1.049  0.00  0.00    -0.069 A 
ATOM     10  C   LIG d   1      -4.865  -0.678  -1.074  0.00  0.00    -0.050 A 
ATOM     11  H   LIG d   1      -3.087  -1.560  -1.745  0.00  0.00     0.085 H 
ATOM     12  C   LIG d   1      -5.434   0.175  -0.137  0.00  0.00     0.066 A 
ATOM     13  H   LIG d   1      -5.458  -1.127  -1.790  0.00  0.00     0.087 H 
ATOM     14  C   LIG d   1      -4.641   0.782   0.827  0.00  0.00    -0.044 A 
ATOM     15  C   LIG d   1      -3.284   0.540   0.859  0.00  0.00    -0.048 A 
ATOM     16  H   LIG d   1      -5.068   1.415   1.521  0.00  0.00     0.088 H 
BRANCH  12  17
ATOM     17  O   LIG d   1      -6.770   0.420  -0.169  0.00  0.00    -0.361 OA
ATOM     18  H   LIG d   1      -7.156   0.995   0.462  0.00  0.00     0.217 HD
ENDBRANCH  12  17
BRANCH  15  19
ATOM     19  C   LIG d   1      -2.424   1.200   1.906  0.00  0.00    -0.050 C 
ATOM     20  H   LIG d   1      -1.407   0.896   1.775  0.00  0.00     0.033 H 
ATOM     21  H   LIG d   1      -2.761   0.909   2.879  0.00  0.00     0.033 H 
ATOM     22  H   LIG d   1      -2.494   2.263   1.807  0.00  0.00     0.033 H 
ENDBRANCH  15  19
ENDBRANCH   1   8
BRANCH   3  23
ATOM     23  C   LIG d   1       2.707  -0.309   0.068  0.00  0.00    -0.013 A 
ATOM     24  C   LIG d   1       3.511  -0.978   0.993  0.00  0.00    -0.069 A 
ATOM     25  C   LIG d   1       4.866  -0.726   1.035  0.00  0.00    -0.050 A 
ATOM     26  H   LIG d   1       3.092  -1.660   1.644  0.00  0.00     0.085 H 
ATOM     27  C   LIG d   1       5.431   0.191   0.158  0.00  0.00     0.066 A 
ATOM     28  H   LIG d   1       5.461  -1.219   1.719  0.00  0.00     0.087 H 
ATOM     29  C   LIG d   1       4.635   0.858  -0.763  0.00  0.00    -0.044 A 
ATOM     30  C   LIG d   1       3.280   0.608  -0.816  0.00  0.00    -0.048 A 
ATOM     31  H   LIG d   1       5.058   1.542  -1.409  0.00  0.00     0.088 H 
BRANCH  27  32
ATOM     32  O   LIG d   1       6.767   0.438   0.203  0.00  0.00    -0.361 OA
ATOM     33  H   LIG d   1       7.306  -0.011   0.824  0.00  0.00     0.217 HD
ENDBRANCH  27  32
BRANCH  30  34
ATOM     34  C   LIG d   1       2.418   1.328  -1.820  0.00  0.00    -0.050 C 
ATOM     35  H   LIG d   1       1.403   1.008  -1.713  0.00  0.00     0.033 H 
ATOM     36  H   LIG d   1       2.760   1.105  -2.809  0.00  0.00     0.033 H 
ATOM     37  H   LIG d   1       2.479   2.383  -1.651  0.00  0.00     0.033 H 
ENDBRANCH  30  34
ENDBRANCH   3  23
TORSDOF 6
