@<TRIPOS>MOLECULE
1GV
 37 39 0 0 0
SMALL
GASTEIGER

@<TRIPOS>ATOM
      1 C          -5.4340    0.1750   -0.1370 C.ar    1  LIG1        0.1171
      2 C          -4.8650   -0.6780   -1.0740 C.ar    1  LIG1       -0.0196
      3 C          -3.5090   -0.9260   -1.0490 C.ar    1  LIG1       -0.0498
      4 C          -2.7080   -0.3170   -0.0800 C.ar    1  LIG1       -0.0082
      5 C          -3.2840    0.5400    0.8590 C.ar    1  LIG1       -0.0388
      6 C          -4.6410    0.7820    0.8270 C.ar    1  LIG1       -0.0167
      7 C          -1.2540   -0.5800   -0.0490 C.ar    1  LIG1        0.0202
      8 S          -0.0030    0.6530    0.0260 S.2     1  LIG1       -0.0882
      9 C           1.2550   -0.5760    0.0190 C.ar    1  LIG1        0.0202
     10 C           0.6910   -1.8020   -0.0380 C.ar    1  LIG1       -0.0463
     11 C          -0.6840   -1.8040   -0.0690 C.ar    1  LIG1       -0.0463
     12 C           2.7070   -0.3090    0.0680 C.ar    1  LIG1       -0.0082
     13 C           3.5110   -0.9780    0.9930 C.ar    1  LIG1       -0.0498
     14 C           4.8660   -0.7260    1.0350 C.ar    1  LIG1       -0.0196
     15 C           5.4310    0.1910    0.1580 C.ar    1  LIG1        0.1171
     16 C           4.6350    0.8580   -0.7630 C.ar    1  LIG1       -0.0167
     17 C           3.2800    0.6080   -0.8160 C.ar    1  LIG1       -0.0388
     18 O           6.7670    0.4380    0.2030 O.3     1  LIG1       -0.5068
     19 O          -6.7700    0.4200   -0.1690 O.3     1  LIG1       -0.5068
     20 C           2.4180    1.3280   -1.8200 C.3     1  LIG1       -0.0390
     21 C          -2.4240    1.2000    1.9060 C.3     1  LIG1       -0.0390
     22 H          -5.4579   -1.1266   -1.7897 H       1  LIG1        0.0654
     23 H          -3.0865   -1.5603   -1.7448 H       1  LIG1        0.0625
     24 H          -5.0678    1.4155    1.5209 H       1  LIG1        0.0657
     25 H           1.2487   -2.6701   -0.0568 H       1  LIG1        0.0629
     26 H          -1.2377   -2.6742   -0.1048 H       1  LIG1        0.0629
     27 H           3.0918   -1.6600    1.6442 H       1  LIG1        0.0625
     28 H           5.4610   -1.2193    1.7188 H       1  LIG1        0.0654
     29 H           5.0581    1.5423   -1.4093 H       1  LIG1        0.0657
     30 H           7.3059   -0.0113    0.8241 H       1  LIG1        0.2921
     31 H          -7.1561    0.9951    0.4620 H       1  LIG1        0.2921
     32 H           1.4027    1.0078   -1.7130 H       1  LIG1        0.0278
     33 H           2.7601    1.1048   -2.8090 H       1  LIG1        0.0278
     34 H           2.4790    2.3828   -1.6511 H       1  LIG1        0.0278
     35 H          -1.4065    0.8960    1.7753 H       1  LIG1        0.0278
     36 H          -2.7608    0.9095    2.8792 H       1  LIG1        0.0278
     37 H          -2.4941    2.2631    1.8069 H       1  LIG1        0.0278
@<TRIPOS>BOND
     1     1     6   ar
     2     1     2   ar
     3     2     3   ar
     4     3     4   ar
     5     4     7    1
     6     5     4   ar
     7     6     5   ar
     8     7     8   ar
     9     7    11   ar
    10     8     9   ar
    11     9    12    1
    12    10     9   ar
    13    11    10   ar
    14    12    13   ar
    15    13    14   ar
    16    15    14   ar
    17    15    18    1
    18    16    15   ar
    19    17    12   ar
    20    17    16   ar
    21    19     1    1
    22    20    17    1
    23    21     5    1
    24     2    22    1
    25     3    23    1
    26     6    24    1
    27    10    25    1
    28    11    26    1
    29    13    27    1
    30    14    28    1
    31    16    29    1
    32    18    30    1
    33    19    31    1
    34    20    32    1
    35    20    33    1
    36    20    34    1
    37    21    35    1
    38    21    36    1
    39    21    37    1
