@<TRIPOS>MOLECULE
2OH
 33 34 0 0 0
SMALL
GASTEIGER

@<TRIPOS>ATOM
      1 O           1.7540   -1.1000    4.0360 O.3     1  LIG1       -0.5068
      2 C           1.7980   -1.0790    2.6760 C.ar    1  LIG1        0.1169
      3 C           1.5380   -2.2430    1.9520 C.ar    1  LIG1       -0.0199
      4 C           1.5820   -2.2210    0.5580 C.ar    1  LIG1       -0.0543
      5 C           2.1020    0.1060    2.0060 C.ar    1  LIG1       -0.0199
      6 C           2.1450    0.1270    0.6120 C.ar    1  LIG1       -0.0543
      7 C           1.8850   -1.0360   -0.1120 C.ar    1  LIG1       -0.0372
      8 C           1.9310   -1.0130   -1.6030 C.3     1  LIG1        0.0151
      9 C           2.2820    0.3850   -2.2490 C.3     1  LIG1       -0.0517
     10 C           0.5010   -1.3310   -2.1750 C.3     1  LIG1       -0.0517
     11 C           3.0070   -2.0090   -2.1910 C.ar    1  LIG1       -0.0372
     12 C           4.2930   -1.8020   -1.8230 C.ar    1  LIG1       -0.0543
     13 C           5.2440   -2.6810   -2.3430 C.ar    1  LIG1       -0.0199
     14 C           2.5520   -2.9820   -3.0120 C.ar    1  LIG1       -0.0543
     15 C           3.5030   -3.8610   -3.5320 C.ar    1  LIG1       -0.0199
     16 C           4.8480   -3.7100   -3.1970 C.ar    1  LIG1        0.1169
     17 O           5.7760   -4.5670   -3.7060 O.3     1  LIG1       -0.5068
     18 H           1.5498   -1.8961    4.4859 H       1  LIG1        0.2921
     19 H           1.3132   -3.1198    2.4476 H       1  LIG1        0.0654
     20 H           1.3903   -3.0819    0.0222 H       1  LIG1        0.0622
     21 H           2.2950    0.9668    2.5414 H       1  LIG1        0.0654
     22 H           2.3694    1.0038    0.1161 H       1  LIG1        0.0622
     23 H           3.2508    0.6972   -1.9191 H       1  LIG1        0.0241
     24 H           1.5530    1.1091   -1.9502 H       1  LIG1        0.0241
     25 H           2.2799    0.2958   -3.3153 H       1  LIG1        0.0241
     26 H           0.1653   -2.2724   -1.7929 H       1  LIG1        0.0241
     27 H           0.5458   -1.3751   -3.2431 H       1  LIG1        0.0241
     28 H          -0.1810   -0.5619   -1.8781 H       1  LIG1        0.0241
     29 H           4.5573   -1.0319   -1.1889 H       1  LIG1        0.0622
     30 H           6.2397   -2.5697   -2.0957 H       1  LIG1        0.0654
     31 H           1.5501   -3.0704   -3.2429 H       1  LIG1        0.0622
     32 H           3.2109   -4.6225   -4.1643 H       1  LIG1        0.0654
     33 H           6.6800   -4.4661   -3.4813 H       1  LIG1        0.2921
@<TRIPOS>BOND
     1     1     2    1
     2     2     3   ar
     3     2     5   ar
     4     3     4   ar
     5     4     7   ar
     6     5     6   ar
     7     6     7   ar
     8     7     8    1
     9     8    11    1
    10     8     9    1
    11     8    10    1
    12    11    12   ar
    13    11    14   ar
    14    12    13   ar
    15    13    16   ar
    16    14    15   ar
    17    15    16   ar
    18    16    17    1
    19     1    18    1
    20     3    19    1
    21     4    20    1
    22     5    21    1
    23     6    22    1
    24     9    23    1
    25     9    24    1
    26     9    25    1
    27    10    26    1
    28    10    27    1
    29    10    28    1
    30    12    29    1
    31    13    30    1
    32    14    31    1
    33    15    32    1
    34    17    33    1
