REMARK  6 active torsions:
REMARK  status: ('A' for Active; 'I' for Inactive)
REMARK    1  A    between atoms: O_1  and  C_2 
REMARK    2  A    between atoms: C_7  and  C_8 
REMARK    3  A    between atoms: C_8  and  C_11 
REMARK    4  A    between atoms: C_8  and  C_9 
REMARK    5  A    between atoms: C_8  and  C_10 
REMARK    6  A    between atoms: C_16  and  O_17 
ROOT
ATOM      1  C   LIG d   1       1.931  -1.013  -1.603  0.00  0.00     0.007 C 
ENDROOT
BRANCH   1   2
ATOM      2  C   LIG d   1       1.885  -1.036  -0.112  0.00  0.00    -0.045 A 
ATOM      3  C   LIG d   1       1.582  -2.221   0.558  0.00  0.00    -0.073 A 
ATOM      4  C   LIG d   1       1.538  -2.243   1.952  0.00  0.00    -0.051 A 
ATOM      5  H   LIG d   1       1.390  -3.082   0.022  0.00  0.00     0.084 H 
ATOM      6  C   LIG d   1       1.798  -1.079   2.676  0.00  0.00     0.065 A 
ATOM      7  H   LIG d   1       1.313  -3.120   2.448  0.00  0.00     0.087 H 
ATOM      8  C   LIG d   1       2.102   0.106   2.006  0.00  0.00    -0.051 A 
ATOM      9  C   LIG d   1       2.145   0.127   0.612  0.00  0.00    -0.073 A 
ATOM     10  H   LIG d   1       2.295   0.967   2.541  0.00  0.00     0.087 H 
ATOM     11  H   LIG d   1       2.369   1.004   0.116  0.00  0.00     0.084 H 
BRANCH   6  12
ATOM     12  O   LIG d   1       1.754  -1.100   4.036  0.00  0.00    -0.361 OA
ATOM     13  H   LIG d   1       1.550  -1.896   4.486  0.00  0.00     0.217 HD
ENDBRANCH   6  12
ENDBRANCH   1   2
BRANCH   1  14
ATOM     14  C   LIG d   1       3.007  -2.009  -2.191  0.00  0.00    -0.045 A 
ATOM     15  C   LIG d   1       4.293  -1.802  -1.823  0.00  0.00    -0.073 A 
ATOM     16  C   LIG d   1       5.244  -2.681  -2.343  0.00  0.00    -0.051 A 
ATOM     17  H   LIG d   1       4.557  -1.032  -1.189  0.00  0.00     0.084 H 
ATOM     18  C   LIG d   1       4.848  -3.710  -3.197  0.00  0.00     0.065 A 
ATOM     19  H   LIG d   1       6.240  -2.570  -2.096  0.00  0.00     0.087 H 
ATOM     20  C   LIG d   1       3.503  -3.861  -3.532  0.00  0.00    -0.051 A 
ATOM     21  C   LIG d   1       2.552  -2.982  -3.012  0.00  0.00    -0.073 A 
ATOM     22  H   LIG d   1       3.211  -4.622  -4.164  0.00  0.00     0.087 H 
ATOM     23  H   LIG d   1       1.550  -3.070  -3.243  0.00  0.00     0.084 H 
BRANCH  18  24
ATOM     24  O   LIG d   1       5.776  -4.567  -3.706  0.00  0.00    -0.361 OA
ATOM     25  H   LIG d   1       6.680  -4.466  -3.481  0.00  0.00     0.217 HD
ENDBRANCH  18  24
ENDBRANCH   1  14
BRANCH   1  26
ATOM     26  C   LIG d   1       2.282   0.385  -2.249  0.00  0.00    -0.061 C 
ATOM     27  H   LIG d   1       3.251   0.697  -1.919  0.00  0.00     0.029 H 
ATOM     28  H   LIG d   1       1.553   1.109  -1.950  0.00  0.00     0.029 H 
ATOM     29  H   LIG d   1       2.280   0.296  -3.315  0.00  0.00     0.029 H 
ENDBRANCH   1  26
BRANCH   1  30
ATOM     30  C   LIG d   1       0.501  -1.331  -2.175  0.00  0.00    -0.061 C 
ATOM     31  H   LIG d   1       0.165  -2.272  -1.793  0.00  0.00     0.029 H 
ATOM     32  H   LIG d   1       0.546  -1.375  -3.243  0.00  0.00     0.029 H 
ATOM     33  H   LIG d   1      -0.181  -0.562  -1.878  0.00  0.00     0.029 H 
ENDBRANCH   1  30
TORSDOF 6
