@<TRIPOS>MOLECULE
369
 45 48 0 0 0
SMALL
GASTEIGER

@<TRIPOS>ATOM
      1 C          -0.5650   -0.3850   -0.5100 C.ar    1  LIG1        0.1440
      2 C           0.9760    2.7520   -1.3940 C.ar    1  LIG1       -0.0159
      3 C           1.2980    3.9490   -0.7860 C.ar    1  LIG1       -0.0167
      4 C           0.3830    3.1440    1.2850 C.ar    1  LIG1       -0.0167
      5 C           2.3710   -0.1760    0.6130 C.ar    1  LIG1       -0.0537
      6 C           4.4410   -1.1770   -0.0550 C.ar    1  LIG1       -0.0201
      7 C           3.7560   -2.2700   -0.5680 C.ar    1  LIG1        0.1174
      8 C           2.3740   -2.3190   -0.4920 C.ar    1  LIG1       -0.0123
      9 C           0.4200   -3.3000    1.7150 C.3     1  LIG1       -0.0390
     10 C          -0.4260   -2.3000    0.9690 C.ar    1  LIG1       -0.0386
     11 C          -1.7800   -2.3650    1.0650 C.ar    1  LIG1       -0.0502
     12 C          -2.5810   -1.4410    0.3700 C.ar    1  LIG1       -0.0106
     13 C          -3.9820   -1.4910    0.4550 C.ar    1  LIG1       -0.0123
     14 C          -4.7340   -0.5810   -0.2320 C.ar    1  LIG1        0.1175
     15 O          -6.0900   -0.6310   -0.1480 O.3     1  LIG1       -0.5067
     16 C          -4.1280    0.4020   -1.0210 C.ar    1  LIG1       -0.0195
     17 C          -2.7730    0.4900   -1.1070 C.ar    1  LIG1       -0.0470
     18 C          -1.9690   -0.4370   -0.4220 C.ar    1  LIG1        0.0253
     19 O           0.0400    0.5690   -1.2620 O.3     1  LIG1       -0.4548
     20 C           0.3570    1.7480   -0.6640 C.ar    1  LIG1        0.1287
     21 C           1.0020    4.1480    0.5550 C.ar    1  LIG1        0.1171
     22 O           1.3190    5.3270    1.1530 O.3     1  LIG1       -0.5068
     23 C           0.0610    1.9470    0.6770 C.ar    1  LIG1       -0.0159
     24 C           0.1960   -1.3160    0.1860 C.ar    1  LIG1        0.0280
     25 C           1.6750   -1.2700    0.1010 C.ar    1  LIG1       -0.0107
     26 C           3.7490   -0.1350    0.5330 C.ar    1  LIG1       -0.0577
     27 O           4.4410   -3.2920   -1.1450 O.3     1  LIG1       -0.5067
     28 H           1.1958    2.6043   -2.3914 H       1  LIG1        0.0655
     29 H           1.7589    4.6959   -1.3289 H       1  LIG1        0.0655
     30 H           0.1632    3.2917    2.2824 H       1  LIG1        0.0655
     31 H           1.8563    0.6034    1.0519 H       1  LIG1        0.0624
     32 H           5.4708   -1.1423   -0.1129 H       1  LIG1        0.0654
     33 H           1.8633   -3.1305   -0.8737 H       1  LIG1        0.0660
     34 H          -0.2143   -3.9708    2.2559 H       1  LIG1        0.0278
     35 H           1.0607   -2.7848    2.3998 H       1  LIG1        0.0278
     36 H           1.0142   -3.8543    1.0189 H       1  LIG1        0.0278
     37 H          -2.2210   -3.0931    1.6485 H       1  LIG1        0.0626
     38 H          -4.4410   -2.2117    1.0337 H       1  LIG1        0.0660
     39 H          -6.5029   -1.2868    0.3787 H       1  LIG1        0.2921
     40 H          -4.7161    1.0691   -1.5446 H       1  LIG1        0.0654
     41 H          -2.3373    1.2347   -1.6732 H       1  LIG1        0.0626
     42 H           1.7371    6.0050    0.6596 H       1  LIG1        0.2921
     43 H          -0.3999    1.2001    1.2199 H       1  LIG1        0.0655
     44 H           4.2631    0.6752    0.9130 H       1  LIG1        0.0619
     45 H           5.3760   -3.2591   -1.1966 H       1  LIG1        0.2921
@<TRIPOS>BOND
     1     1    18   ar
     2     1    19    1
     3     1    24   ar
     4     2     3   ar
     5     2    20   ar
     6     3    21   ar
     7     4    21   ar
     8     4    23   ar
     9     5    25   ar
    10     5    26   ar
    11     6     7   ar
    12     6    26   ar
    13     7     8   ar
    14     7    27    1
    15     8    25   ar
    16     9    10    1
    17    10    11   ar
    18    10    24   ar
    19    11    12   ar
    20    12    13   ar
    21    12    18   ar
    22    13    14   ar
    23    14    15    1
    24    14    16   ar
    25    16    17   ar
    26    17    18   ar
    27    19    20    1
    28    20    23   ar
    29    21    22    1
    30    24    25    1
    31     2    28    1
    32     3    29    1
    33     4    30    1
    34     5    31    1
    35     6    32    1
    36     8    33    1
    37     9    34    1
    38     9    35    1
    39     9    36    1
    40    11    37    1
    41    13    38    1
    42    15    39    1
    43    16    40    1
    44    17    41    1
    45    22    42    1
    46    23    43    1
    47    26    44    1
    48    27    45    1
