REMARK  7 active torsions:
REMARK  status: ('A' for Active; 'I' for Inactive)
REMARK    1  A    between atoms: C_1  and  O_19 
REMARK    2  A    between atoms: C_7  and  O_27 
REMARK    3  A    between atoms: C_9  and  C_10 
REMARK    4  A    between atoms: C_14  and  O_15 
REMARK    5  A    between atoms: O_19  and  C_20 
REMARK    6  A    between atoms: C_21  and  O_22 
REMARK    7  A    between atoms: C_24  and  C_25 
ROOT
ATOM      1  C   LIG d   1      -0.565  -0.385  -0.510  0.00  0.00     0.098 A 
ATOM      2  C   LIG d   1      -0.426  -2.300   0.969  0.00  0.00    -0.047 A 
ATOM      3  C   LIG d   1      -1.780  -2.365   1.065  0.00  0.00    -0.065 A 
ATOM      4  C   LIG d   1      -2.581  -1.441   0.370  0.00  0.00    -0.020 A 
ATOM      5  C   LIG d   1      -3.982  -1.491   0.455  0.00  0.00    -0.040 A 
ATOM      6  C   LIG d   1      -4.734  -0.581  -0.232  0.00  0.00     0.066 A 
ATOM      7  C   LIG d   1      -4.128   0.402  -1.021  0.00  0.00    -0.050 A 
ATOM      8  C   LIG d   1      -2.773   0.490  -1.107  0.00  0.00    -0.067 A 
ATOM      9  C   LIG d   1      -1.969  -0.437  -0.422  0.00  0.00     0.009 A 
ATOM     10  C   LIG d   1       0.196  -1.316   0.186  0.00  0.00     0.015 A 
ATOM     11  H   LIG d   1      -2.221  -3.093   1.649  0.00  0.00     0.085 H 
ATOM     12  H   LIG d   1      -4.441  -2.212   1.034  0.00  0.00     0.089 H 
ATOM     13  H   LIG d   1      -4.716   1.069  -1.545  0.00  0.00     0.087 H 
ATOM     14  H   LIG d   1      -2.337   1.235  -1.673  0.00  0.00     0.085 H 
ENDROOT
BRANCH   1  15
ATOM     15  O   LIG d   1       0.040   0.569  -1.262  0.00  0.00    -0.309 OA
BRANCH  15  16
ATOM     16  C   LIG d   1       0.357   1.748  -0.664  0.00  0.00     0.076 A 
ATOM     17  C   LIG d   1       0.976   2.752  -1.394  0.00  0.00    -0.048 A 
ATOM     18  C   LIG d   1       1.298   3.949  -0.786  0.00  0.00    -0.048 A 
ATOM     19  H   LIG d   1       1.196   2.604  -2.391  0.00  0.00     0.087 H 
ATOM     20  C   LIG d   1       1.002   4.148   0.555  0.00  0.00     0.065 A 
ATOM     21  H   LIG d   1       1.759   4.696  -1.329  0.00  0.00     0.087 H 
ATOM     22  C   LIG d   1       0.383   3.144   1.285  0.00  0.00    -0.048 A 
ATOM     23  C   LIG d   1       0.061   1.947   0.677  0.00  0.00    -0.048 A 
ATOM     24  H   LIG d   1       0.163   3.292   2.282  0.00  0.00     0.087 H 
ATOM     25  H   LIG d   1      -0.400   1.200   1.220  0.00  0.00     0.087 H 
BRANCH  20  26
ATOM     26  O   LIG d   1       1.319   5.327   1.153  0.00  0.00    -0.361 OA
ATOM     27  H   LIG d   1       1.737   6.005   0.660  0.00  0.00     0.217 HD
ENDBRANCH  20  26
ENDBRANCH  15  16
ENDBRANCH   1  15
BRANCH  10  28
ATOM     28  C   LIG d   1       1.675  -1.270   0.101  0.00  0.00    -0.020 A 
ATOM     29  C   LIG d   1       2.371  -0.176   0.613  0.00  0.00    -0.072 A 
ATOM     30  C   LIG d   1       3.749  -0.135   0.533  0.00  0.00    -0.080 A 
ATOM     31  H   LIG d   1       1.856   0.603   1.052  0.00  0.00     0.084 H 
ATOM     32  C   LIG d   1       4.441  -1.177  -0.055  0.00  0.00    -0.051 A 
ATOM     33  H   LIG d   1       4.263   0.675   0.913  0.00  0.00     0.083 H 
ATOM     34  C   LIG d   1       3.756  -2.270  -0.568  0.00  0.00     0.066 A 
ATOM     35  H   LIG d   1       5.471  -1.142  -0.113  0.00  0.00     0.087 H 
ATOM     36  C   LIG d   1       2.374  -2.319  -0.492  0.00  0.00    -0.040 A 
ATOM     37  H   LIG d   1       1.863  -3.131  -0.874  0.00  0.00     0.089 H 
BRANCH  34  38
ATOM     38  O   LIG d   1       4.441  -3.292  -1.145  0.00  0.00    -0.361 OA
ATOM     39  H   LIG d   1       5.376  -3.259  -1.197  0.00  0.00     0.217 HD
ENDBRANCH  34  38
ENDBRANCH  10  28
BRANCH   2  40
ATOM     40  C   LIG d   1       0.420  -3.300   1.715  0.00  0.00    -0.050 C 
ATOM     41  H   LIG d   1      -0.214  -3.971   2.256  0.00  0.00     0.033 H 
ATOM     42  H   LIG d   1       1.061  -2.785   2.400  0.00  0.00     0.033 H 
ATOM     43  H   LIG d   1       1.014  -3.854   1.019  0.00  0.00     0.033 H 
ENDBRANCH   2  40
BRANCH   6  44
ATOM     44  O   LIG d   1      -6.090  -0.631  -0.148  0.00  0.00    -0.361 OA
ATOM     45  H   LIG d   1      -6.503  -1.287   0.379  0.00  0.00     0.217 HD
ENDBRANCH   6  44
TORSDOF 7
