REMARK  5 active torsions:
REMARK  status: ('A' for Active; 'I' for Inactive)
REMARK    1  A    between atoms: C_3  and  C_4 
REMARK    2  A    between atoms: C_7  and  C_8 
REMARK    3  A    between atoms: C_8  and  O_9 
REMARK    4  A    between atoms: C_12  and  C_13 
REMARK    5  A    between atoms: C_16  and  O_17 
ROOT
ATOM      1  C   LIG d   1      -2.037  -0.072  -1.503  0.00  0.00    -0.044 C 
ATOM      2  C   LIG d   1      -0.577   0.291  -1.193  0.00  0.00    -0.003 C 
ATOM      3  C   LIG d   1      -0.564   1.555  -0.369  0.00  0.00    -0.081 C 
ATOM      4  C   LIG d   1      -1.564   1.925   0.365  0.00  0.00    -0.100 C 
ATOM      5  C   LIG d   1      -2.859   1.181   0.485  0.00  0.00    -0.039 C 
ATOM      6  C   LIG d   1      -2.766  -0.198  -0.160  0.00  0.00     0.006 C 
ATOM      7  C   LIG d   1      -2.022  -1.178   0.737  0.00  0.00     0.030 C 
ATOM      8  O   LIG d   1      -0.670  -0.779   0.938  0.00  0.00    -0.380 OA
ATOM      9  C   LIG d   1      -0.008  -0.824  -0.327  0.00  0.00     0.071 C 
ATOM     10  H   LIG d   1      -2.080  -1.001  -2.032  0.00  0.00     0.035 H 
ATOM     11  H   LIG d   1      -2.494   0.677  -2.115  0.00  0.00     0.035 H 
ATOM     12  H   LIG d   1      -0.016   0.420  -2.095  0.00  0.00     0.051 H 
ATOM     13  H   LIG d   1      -1.462   2.797   0.908  0.00  0.00     0.077 H 
ATOM     14  H   LIG d   1      -3.630   1.742  -0.001  0.00  0.00     0.040 H 
ATOM     15  H   LIG d   1      -3.081   1.054   1.524  0.00  0.00     0.040 H 
ATOM     16  H   LIG d   1      -2.035  -2.146   0.280  0.00  0.00     0.075 H 
ATOM     17  H   LIG d   1      -2.511  -1.199   1.689  0.00  0.00     0.075 H 
ATOM     18  H   LIG d   1      -0.159  -1.775  -0.793  0.00  0.00     0.092 H 
ENDROOT
BRANCH   9  19
ATOM     19  C   LIG d   1       1.471  -0.609  -0.135  0.00  0.00    -0.029 A 
ATOM     20  C   LIG d   1       2.360  -1.012  -1.115  0.00  0.00    -0.072 A 
ATOM     21  C   LIG d   1       3.716  -0.811  -0.944  0.00  0.00    -0.050 A 
ATOM     22  H   LIG d   1       2.010  -1.463  -1.975  0.00  0.00     0.084 H 
ATOM     23  C   LIG d   1       4.187  -0.215   0.217  0.00  0.00     0.065 A 
ATOM     24  H   LIG d   1       4.378  -1.104  -1.679  0.00  0.00     0.087 H 
ATOM     25  C   LIG d   1       3.293   0.183   1.201  0.00  0.00    -0.050 A 
ATOM     26  C   LIG d   1       1.938  -0.015   1.023  0.00  0.00    -0.072 A 
ATOM     27  H   LIG d   1       3.641   0.627   2.065  0.00  0.00     0.087 H 
ATOM     28  H   LIG d   1       1.273   0.281   1.755  0.00  0.00     0.084 H 
BRANCH  23  29
ATOM     29  O   LIG d   1       5.521  -0.021   0.390  0.00  0.00    -0.361 OA
ATOM     30  H   LIG d   1       6.124  -0.290  -0.275  0.00  0.00     0.217 HD
ENDBRANCH  23  29
ENDBRANCH   9  19
BRANCH   3  31
ATOM     31  C   LIG d   1       0.666   2.426  -0.405  0.00  0.00    -0.054 C 
ATOM     32  H   LIG d   1       1.396   1.986  -1.052  0.00  0.00     0.033 H 
ATOM     33  H   LIG d   1       1.070   2.513   0.582  0.00  0.00     0.033 H 
ATOM     34  H   LIG d   1       0.405   3.397  -0.770  0.00  0.00     0.033 H 
ENDBRANCH   3  31
BRANCH   6  35
ATOM     35  C   LIG d   1      -4.180  -0.727  -0.409  0.00  0.00     0.026 C 
ATOM     36  H   LIG d   1      -4.124  -1.695  -0.861  0.00  0.00     0.075 H 
ATOM     37  H   LIG d   1      -4.701  -0.058  -1.062  0.00  0.00     0.075 H 
BRANCH  35  38
ATOM     38  O   LIG d   1      -4.880  -0.821   0.834  0.00  0.00    -0.400 OA
ATOM     39  H   LIG d   1      -4.408  -1.427   1.426  0.00  0.00     0.209 HD
ENDBRANCH  35  38
ENDBRANCH   6  35
TORSDOF 5
