@<TRIPOS>MOLECULE
458
 39 41 0 0 0
SMALL
GASTEIGER

@<TRIPOS>ATOM
      1 C          -2.0370   -0.0720   -1.5030 C.3     1  LIG1       -0.0337
      2 C          -0.5770    0.2910   -1.1930 C.3     1  LIG1        0.0109
      3 C          -0.5640    1.5550   -0.3690 C.2     1  LIG1       -0.0706
      4 C           0.6660    2.4260   -0.4050 C.3     1  LIG1       -0.0434
      5 C          -1.5640    1.9250    0.3650 C.2     1  LIG1       -0.0840
      6 C          -2.8590    1.1810    0.4850 C.3     1  LIG1       -0.0246
      7 C          -2.7660   -0.1980   -0.1600 C.3     1  LIG1        0.0213
      8 C          -4.1800   -0.7270   -0.4090 C.3     1  LIG1        0.0522
      9 O          -4.8800   -0.8210    0.8340 O.3     1  LIG1       -0.3944
     10 C          -2.0220   -1.1780    0.7370 C.3     1  LIG1        0.0565
     11 O          -0.6700   -0.7790    0.9380 O.3     1  LIG1       -0.3707
     12 C          -0.0080   -0.8240   -0.3270 C.3     1  LIG1        0.0901
     13 C           1.4710   -0.6090   -0.1350 C.ar    1  LIG1       -0.0181
     14 C           2.3600   -1.0120   -1.1150 C.ar    1  LIG1       -0.0527
     15 C           3.7160   -0.8110   -0.9440 C.ar    1  LIG1       -0.0198
     16 C           4.1870   -0.2150    0.2170 C.ar    1  LIG1        0.1169
     17 O           5.5210   -0.0210    0.3900 O.3     1  LIG1       -0.5068
     18 C           3.2930    0.1830    1.2010 C.ar    1  LIG1       -0.0198
     19 C           1.9380   -0.0150    1.0230 C.ar    1  LIG1       -0.0527
     20 H          -2.0797   -1.0010   -2.0322 H       1  LIG1        0.0279
     21 H          -2.4937    0.6775   -2.1150 H       1  LIG1        0.0279
     22 H          -0.0160    0.4205   -2.0949 H       1  LIG1        0.0374
     23 H           1.3959    1.9859   -1.0519 H       1  LIG1        0.0274
     24 H           1.0703    2.5132    0.5818 H       1  LIG1        0.0274
     25 H           0.4048    3.3971   -0.7705 H       1  LIG1        0.0274
     26 H          -1.4617    2.7969    0.9076 H       1  LIG1        0.0572
     27 H          -3.6299    1.7420   -0.0007 H       1  LIG1        0.0314
     28 H          -3.0814    1.0543    1.5239 H       1  LIG1        0.0314
     29 H          -4.1240   -1.6953   -0.8608 H       1  LIG1        0.0563
     30 H          -4.7010   -0.0581   -1.0618 H       1  LIG1        0.0563
     31 H          -4.4079   -1.4273    1.4259 H       1  LIG1        0.2094
     32 H          -2.0347   -2.1456    0.2804 H       1  LIG1        0.0566
     33 H          -2.5106   -1.1992    1.6887 H       1  LIG1        0.0566
     34 H          -0.1594   -1.7753   -0.7929 H       1  LIG1        0.0652
     35 H           2.0100   -1.4632   -1.9746 H       1  LIG1        0.0622
     36 H           4.3782   -1.1040   -1.6793 H       1  LIG1        0.0654
     37 H           6.1237   -0.2901   -0.2751 H       1  LIG1        0.2921
     38 H           3.6407    0.6268    2.0654 H       1  LIG1        0.0654
     39 H           1.2733    0.2806    1.7550 H       1  LIG1        0.0622
@<TRIPOS>BOND
     1     1     2    1
     2     1     7    1
     3     2     3    1
     4     2    12    1
     5     3     4    1
     6     3     5    2
     7     5     6    1
     8     6     7    1
     9     7     8    1
    10     7    10    1
    11     8     9    1
    12    10    11    1
    13    11    12    1
    14    12    13    1
    15    13    14   ar
    16    13    19   ar
    17    14    15   ar
    18    15    16   ar
    19    16    17    1
    20    16    18   ar
    21    18    19   ar
    22     1    20    1
    23     1    21    1
    24     2    22    1
    25     4    23    1
    26     4    24    1
    27     4    25    1
    28     5    26    1
    29     6    27    1
    30     6    28    1
    31     8    29    1
    32     8    30    1
    33     9    31    1
    34    10    32    1
    35    10    33    1
    36    12    34    1
    37    14    35    1
    38    15    36    1
    39    17    37    1
    40    18    38    1
    41    19    39    1
