REMARK  6 active torsions:
REMARK  status: ('A' for Active; 'I' for Inactive)
REMARK    1  A    between atoms: C_1  and  C_2 
REMARK    2  A    between atoms: C_4  and  C_5 
REMARK    3  A    between atoms: C_8  and  C_9 
REMARK    4  A    between atoms: C_9  and  O_10 
REMARK    5  A    between atoms: C_13  and  C_14 
REMARK    6  A    between atoms: C_17  and  O_18 
ROOT
ATOM      1  C   LIG d   1       1.936  -0.275   1.259  0.00  0.00    -0.040 C 
ATOM      2  C   LIG d   1       0.443   0.062   1.149  0.00  0.00    -0.018 C 
ATOM      3  C   LIG d   1       0.303   1.527   0.719  0.00  0.00    -0.051 C 
ATOM      4  C   LIG d   1       0.957   1.719  -0.650  0.00  0.00    -0.061 C 
ATOM      5  C   LIG d   1       2.436   1.335  -0.575  0.00  0.00    -0.053 C 
ATOM      6  C   LIG d   1       2.560  -0.127  -0.135  0.00  0.00     0.006 C 
ATOM      7  C   LIG d   1       1.795  -1.012  -1.125  0.00  0.00     0.030 C 
ATOM      8  O   LIG d   1       0.439  -0.578  -1.210  0.00  0.00    -0.380 OA
ATOM      9  C   LIG d   1      -0.183  -0.843   0.045  0.00  0.00     0.068 C 
ATOM     10  H   LIG d   1       2.413   0.381   1.957  0.00  0.00     0.041 H 
ATOM     11  H   LIG d   1      -0.048  -0.097   2.087  0.00  0.00     0.045 H 
ATOM     12  H   LIG d   1      -0.734   1.785   0.659  0.00  0.00     0.040 H 
ATOM     13  H   LIG d   1       0.870   2.744  -0.945  0.00  0.00     0.033 H 
ATOM     14  H   LIG d   1       0.466   1.095  -1.367  0.00  0.00     0.033 H 
ATOM     15  H   LIG d   1       2.933   1.964   0.133  0.00  0.00     0.034 H 
ATOM     16  H   LIG d   1       2.887   1.458  -1.538  0.00  0.00     0.034 H 
ATOM     17  H   LIG d   1       1.823  -2.028  -0.789  0.00  0.00     0.075 H 
ATOM     18  H   LIG d   1       2.251  -0.940  -2.090  0.00  0.00     0.075 H 
ATOM     19  H   LIG d   1      -0.029  -1.870   0.304  0.00  0.00     0.091 H 
ENDROOT
BRANCH   9  20
ATOM     20  C   LIG d   1      -1.660  -0.564  -0.058  0.00  0.00    -0.029 A 
ATOM     21  C   LIG d   1      -2.113   0.476  -0.850  0.00  0.00    -0.072 A 
ATOM     22  C   LIG d   1      -3.467   0.730  -0.951  0.00  0.00    -0.050 A 
ATOM     23  H   LIG d   1      -1.439   1.063  -1.366  0.00  0.00     0.084 H 
ATOM     24  C   LIG d   1      -4.372  -0.052  -0.249  0.00  0.00     0.065 A 
ATOM     25  H   LIG d   1      -3.805   1.501  -1.548  0.00  0.00     0.087 H 
ATOM     26  C   LIG d   1      -3.916  -1.091   0.549  0.00  0.00    -0.050 A 
ATOM     27  C   LIG d   1      -2.561  -1.344   0.643  0.00  0.00    -0.072 A 
ATOM     28  H   LIG d   1      -4.588  -1.674   1.072  0.00  0.00     0.087 H 
ATOM     29  H   LIG d   1      -2.221  -2.116   1.237  0.00  0.00     0.084 H 
BRANCH  24  30
ATOM     30  O   LIG d   1      -5.705   0.199  -0.342  0.00  0.00    -0.361 OA
ATOM     31  H   LIG d   1      -6.013   0.901  -0.881  0.00  0.00     0.217 HD
ENDBRANCH  24  30
ENDBRANCH   9  20
BRANCH   1  32
ATOM     32  C   LIG d   1       2.106  -1.718   1.739  0.00  0.00    -0.072 C 
ATOM     33  H   LIG d   1       1.672  -1.824   2.711  0.00  0.00     0.028 H 
ATOM     34  H   LIG d   1       3.148  -1.958   1.786  0.00  0.00     0.028 H 
ATOM     35  H   LIG d   1       1.617  -2.381   1.056  0.00  0.00     0.028 H 
ENDBRANCH   1  32
BRANCH   3  36
ATOM     36  C   LIG d   1       0.992   2.428   1.746  0.00  0.00    -0.072 C 
ATOM     37  H   LIG d   1       2.029   2.171   1.807  0.00  0.00     0.028 H 
ATOM     38  H   LIG d   1       0.534   2.293   2.703  0.00  0.00     0.028 H 
ATOM     39  H   LIG d   1       0.895   3.450   1.446  0.00  0.00     0.028 H 
ENDBRANCH   3  36
BRANCH   6  40
ATOM     40  C   LIG d   1       4.033  -0.539  -0.096  0.00  0.00     0.026 C 
ATOM     41  H   LIG d   1       4.110  -1.561   0.211  0.00  0.00     0.075 H 
ATOM     42  H   LIG d   1       4.559   0.083   0.598  0.00  0.00     0.075 H 
BRANCH  40  43
ATOM     43  O   LIG d   1       4.604  -0.389  -1.398  0.00  0.00    -0.400 OA
ATOM     44  H   LIG d   1       4.127  -0.953  -2.027  0.00  0.00     0.209 HD
ENDBRANCH  40  43
ENDBRANCH   6  40
TORSDOF 6
