@<TRIPOS>MOLECULE
459
 44 46 0 0 0
SMALL
GASTEIGER

@<TRIPOS>ATOM
      1 C           2.1060   -1.7180    1.7390 C.3     1  LIG1       -0.0614
      2 C           1.9360   -0.2750    1.2590 C.3     1  LIG1       -0.0283
      3 C           0.4430    0.0620    1.1490 C.3     1  LIG1       -0.0048
      4 C           0.3030    1.5270    0.7190 C.3     1  LIG1       -0.0381
      5 C           0.9920    2.4280    1.7460 C.3     1  LIG1       -0.0621
      6 C           0.9570    1.7190   -0.6500 C.3     1  LIG1       -0.0495
      7 C           2.4360    1.3350   -0.5750 C.3     1  LIG1       -0.0427
      8 C           2.5600   -0.1270   -0.1350 C.3     1  LIG1        0.0201
      9 C           4.0330   -0.5390   -0.0960 C.3     1  LIG1        0.0522
     10 O           4.6040   -0.3890   -1.3980 O.3     1  LIG1       -0.3944
     11 C           1.7950   -1.0120   -1.1250 C.3     1  LIG1        0.0564
     12 O           0.4390   -0.5780   -1.2100 O.3     1  LIG1       -0.3710
     13 C          -0.1830   -0.8430    0.0450 C.3     1  LIG1        0.0869
     14 C          -1.6600   -0.5640   -0.0580 C.ar    1  LIG1       -0.0184
     15 C          -2.1130    0.4760   -0.8500 C.ar    1  LIG1       -0.0527
     16 C          -3.4670    0.7300   -0.9510 C.ar    1  LIG1       -0.0198
     17 C          -4.3720   -0.0520   -0.2490 C.ar    1  LIG1        0.1169
     18 O          -5.7050    0.1990   -0.3420 O.3     1  LIG1       -0.5068
     19 C          -3.9160   -1.0910    0.5490 C.ar    1  LIG1       -0.0198
     20 C          -2.5610   -1.3440    0.6430 C.ar    1  LIG1       -0.0527
     21 H           1.6716   -1.8240    2.7111 H       1  LIG1        0.0233
     22 H           3.1477   -1.9580    1.7857 H       1  LIG1        0.0233
     23 H           1.6175   -2.3810    1.0558 H       1  LIG1        0.0233
     24 H           2.4126    0.3814    1.9568 H       1  LIG1        0.0309
     25 H          -0.0477   -0.0968    2.0865 H       1  LIG1        0.0334
     26 H          -0.7337    1.7849    0.6586 H       1  LIG1        0.0302
     27 H           2.0289    2.1710    1.8073 H       1  LIG1        0.0233
     28 H           0.5338    2.2927    2.7034 H       1  LIG1        0.0233
     29 H           0.8951    3.4504    1.4455 H       1  LIG1        0.0233
     30 H           0.8704    2.7440   -0.9446 H       1  LIG1        0.0268
     31 H           0.4656    1.0955   -1.3674 H       1  LIG1        0.0268
     32 H           2.9328    1.9644    0.1334 H       1  LIG1        0.0272
     33 H           2.8866    1.4581   -1.5376 H       1  LIG1        0.0272
     34 H           4.1096   -1.5610    0.2115 H       1  LIG1        0.0563
     35 H           4.5591    0.0825    0.5981 H       1  LIG1        0.0563
     36 H           4.1270   -0.9525   -2.0271 H       1  LIG1        0.2094
     37 H           1.8229   -2.0276   -0.7892 H       1  LIG1        0.0566
     38 H           2.2511   -0.9398   -2.0902 H       1  LIG1        0.0566
     39 H          -0.0294   -1.8696    0.3044 H       1  LIG1        0.0649
     40 H          -1.4386    1.0626   -1.3659 H       1  LIG1        0.0622
     41 H          -3.8048    1.5009   -1.5482 H       1  LIG1        0.0654
     42 H          -6.0131    0.9008   -0.8810 H       1  LIG1        0.2921
     43 H          -4.5880   -1.6742    1.0718 H       1  LIG1        0.0654
     44 H          -2.2210   -2.1162    1.2372 H       1  LIG1        0.0622
@<TRIPOS>BOND
     1     1     2    1
     2     2     3    1
     3     2     8    1
     4     3     4    1
     5     3    13    1
     6     4     5    1
     7     4     6    1
     8     6     7    1
     9     7     8    1
    10     8     9    1
    11     8    11    1
    12     9    10    1
    13    11    12    1
    14    12    13    1
    15    13    14    1
    16    14    15   ar
    17    14    20   ar
    18    15    16   ar
    19    16    17   ar
    20    17    18    1
    21    17    19   ar
    22    19    20   ar
    23     1    21    1
    24     1    22    1
    25     1    23    1
    26     2    24    1
    27     3    25    1
    28     4    26    1
    29     5    27    1
    30     5    28    1
    31     5    29    1
    32     6    30    1
    33     6    31    1
    34     7    32    1
    35     7    33    1
    36     9    34    1
    37     9    35    1
    38    10    36    1
    39    11    37    1
    40    11    38    1
    41    13    39    1
    42    15    40    1
    43    16    41    1
    44    18    42    1
    45    19    43    1
    46    20    44    1
