@<TRIPOS>MOLECULE
4OH
 46 49 0 0 0
SMALL
GASTEIGER

@<TRIPOS>ATOM
      1 C          -0.1250   -0.5330   -0.1210 C.3     1  LIG1       -0.0281
      2 C          -1.5630   -0.3750    0.3310 C.3     1  LIG1       -0.0012
      3 C           0.7080    0.4750    0.6800 C.3     1  LIG1       -0.0124
      4 C           0.4140   -1.9320    0.1780 C.3     1  LIG1       -0.0453
      5 C          -2.0050    1.0510   -0.1010 C.3     1  LIG1        0.0019
      6 C          -2.5920   -1.2660   -0.3740 C.3     1  LIG1        0.0871
      7 C           2.1680    0.2950    0.3800 C.ar    1  LIG1       -0.0406
      8 C           0.2480    1.9030    0.4290 C.3     1  LIG1       -0.0454
      9 C           1.7900   -2.0620   -0.4730 C.3     1  LIG1       -0.0270
     10 C          -3.5200    1.0120    0.0590 C.3     1  LIG1        0.0892
     11 C          -1.2530    2.0530    0.7480 C.3     1  LIG1       -0.0443
     12 C          -1.6630    1.2680   -1.5770 C.3     1  LIG1       -0.0568
     13 C          -3.9200   -0.4860   -0.1770 C.3     1  LIG1        0.1076
     14 O          -2.6580   -2.5510    0.2490 O.3     1  LIG1       -0.3888
     15 C           2.6640   -0.8800   -0.1450 C.ar    1  LIG1       -0.0405
     16 C           3.0290    1.3500    0.6480 C.ar    1  LIG1       -0.0546
     17 O          -4.1430    1.8600   -0.9080 O.3     1  LIG1       -0.3886
     18 O          -4.6150   -0.9820    0.9690 O.3     1  LIG1       -0.3866
     19 C           4.0260   -0.9990   -0.3910 C.ar    1  LIG1       -0.0167
     20 C           4.3800    1.2350    0.4010 C.ar    1  LIG1       -0.0199
     21 C           4.8850    0.0520   -0.1200 C.ar    1  LIG1        0.1171
     22 O           6.2160   -0.0740   -0.3630 O.3     1  LIG1       -0.5068
     23 H          -0.0699   -0.3733   -1.1776 H       1  LIG1        0.0310
     24 H          -1.5561   -0.6088    1.3751 H       1  LIG1        0.0335
     25 H           0.5590    0.2852    1.7224 H       1  LIG1        0.0352
     26 H          -0.2485   -2.6693   -0.2249 H       1  LIG1        0.0271
     27 H           0.4893   -2.0812    1.2349 H       1  LIG1        0.0271
     28 H          -2.3606   -1.4517   -1.4020 H       1  LIG1        0.0623
     29 H           0.4158    2.1512   -0.5982 H       1  LIG1        0.0271
     30 H           0.8033    2.5612    1.0640 H       1  LIG1        0.0271
     31 H           1.6692   -2.1224   -1.5344 H       1  LIG1        0.0313
     32 H           2.2606   -2.9455   -0.0949 H       1  LIG1        0.0313
     33 H          -3.8330    1.3591    1.0215 H       1  LIG1        0.0625
     34 H          -1.4269    1.8554    1.7851 H       1  LIG1        0.0272
     35 H          -1.5841    3.0481    0.5357 H       1  LIG1        0.0272
     36 H          -0.6001    1.2964   -1.6964 H       1  LIG1        0.0236
     37 H          -2.0840    2.1943   -1.9082 H       1  LIG1        0.0236
     38 H          -2.0659    0.4650   -2.1583 H       1  LIG1        0.0236
     39 H          -4.5619   -0.5947   -1.0261 H       1  LIG1        0.0645
     40 H          -2.8665   -2.4437    1.1902 H       1  LIG1        0.2099
     41 H           2.6538    2.2295    1.0362 H       1  LIG1        0.0622
     42 H          -3.8843    1.5784   -1.7994 H       1  LIG1        0.2099
     43 H          -4.0506   -0.8932    1.7529 H       1  LIG1        0.2100
     44 H           4.4007   -1.8787   -0.7792 H       1  LIG1        0.0657
     45 H           5.0130    2.0248    0.6025 H       1  LIG1        0.0654
     46 H           6.5544   -0.8738   -0.7148 H       1  LIG1        0.2921
@<TRIPOS>BOND
     1     1     4    1
     2     1     3    1
     3     2     1    1
     4     3     7    1
     5     4     9    1
     6     5     2    1
     7     5    11    1
     8     6     2    1
     9     7    16   ar
    10     8     3    1
    11     9    15    1
    12    10     5    1
    13    11     8    1
    14    12     5    1
    15    13     6    1
    16    13    10    1
    17    14     6    1
    18    15     7   ar
    19    15    19   ar
    20    16    20   ar
    21    17    10    1
    22    18    13    1
    23    19    21   ar
    24    21    20   ar
    25    21    22    1
    26     1    23    1
    27     2    24    1
    28     3    25    1
    29     4    26    1
    30     4    27    1
    31     6    28    1
    32     8    29    1
    33     8    30    1
    34     9    31    1
    35     9    32    1
    36    10    33    1
    37    11    34    1
    38    11    35    1
    39    12    36    1
    40    12    37    1
    41    12    38    1
    42    13    39    1
    43    14    40    1
    44    16    41    1
    45    17    42    1
    46    18    43    1
    47    19    44    1
    48    20    45    1
    49    22    46    1
