REMARK  5 active torsions:
REMARK  status: ('A' for Active; 'I' for Inactive)
REMARK    1  A    between atoms: C_12  and  C_5 
REMARK    2  A    between atoms: O_14  and  C_6 
REMARK    3  A    between atoms: O_17  and  C_10 
REMARK    4  A    between atoms: O_18  and  C_13 
REMARK    5  A    between atoms: C_21  and  O_22 
ROOT
ATOM      1  C   LIG d   1      -0.125  -0.533  -0.121  0.00  0.00    -0.040 C 
ATOM      2  C   LIG d   1      -1.563  -0.375   0.331  0.00  0.00    -0.013 C 
ATOM      3  C   LIG d   1       0.708   0.475   0.680  0.00  0.00    -0.024 C 
ATOM      4  C   LIG d   1       0.414  -1.932   0.178  0.00  0.00    -0.057 C 
ATOM      5  C   LIG d   1      -2.005   1.051  -0.101  0.00  0.00    -0.009 C 
ATOM      6  C   LIG d   1      -2.592  -1.266  -0.374  0.00  0.00     0.067 C 
ATOM      7  C   LIG d   1       2.168   0.295   0.380  0.00  0.00    -0.047 A 
ATOM      8  C   LIG d   1       0.248   1.903   0.429  0.00  0.00    -0.057 C 
ATOM      9  C   LIG d   1       1.790  -2.062  -0.473  0.00  0.00    -0.040 C 
ATOM     10  C   LIG d   1      -3.520   1.012   0.059  0.00  0.00     0.070 C 
ATOM     11  C   LIG d   1      -1.253   2.053   0.748  0.00  0.00    -0.055 C 
ATOM     12  C   LIG d   1      -3.920  -0.486  -0.177  0.00  0.00     0.086 C 
ATOM     13  C   LIG d   1       2.664  -0.880  -0.145  0.00  0.00    -0.049 A 
ATOM     14  C   LIG d   1       3.029   1.350   0.648  0.00  0.00    -0.073 A 
ATOM     15  C   LIG d   1       4.026  -0.999  -0.391  0.00  0.00    -0.044 A 
ATOM     16  C   LIG d   1       4.380   1.235   0.401  0.00  0.00    -0.051 A 
ATOM     17  C   LIG d   1       4.885   0.052  -0.120  0.00  0.00     0.066 A 
ATOM     18  H   LIG d   1      -0.070  -0.373  -1.178  0.00  0.00     0.041 H 
ATOM     19  H   LIG d   1      -1.556  -0.609   1.375  0.00  0.00     0.045 H 
ATOM     20  H   LIG d   1       0.559   0.285   1.722  0.00  0.00     0.048 H 
ATOM     21  H   LIG d   1      -0.248  -2.669  -0.225  0.00  0.00     0.034 H 
ATOM     22  H   LIG d   1       0.489  -2.081   1.235  0.00  0.00     0.034 H 
ATOM     23  H   LIG d   1      -2.361  -1.452  -1.402  0.00  0.00     0.087 H 
ATOM     24  H   LIG d   1       0.416   2.151  -0.598  0.00  0.00     0.034 H 
ATOM     25  H   LIG d   1       0.803   2.561   1.064  0.00  0.00     0.034 H 
ATOM     26  H   LIG d   1       1.669  -2.122  -1.534  0.00  0.00     0.040 H 
ATOM     27  H   LIG d   1       2.261  -2.946  -0.095  0.00  0.00     0.040 H 
ATOM     28  H   LIG d   1      -3.833   1.359   1.022  0.00  0.00     0.088 H 
ATOM     29  H   LIG d   1      -1.427   1.855   1.785  0.00  0.00     0.034 H 
ATOM     30  H   LIG d   1      -1.584   3.048   0.536  0.00  0.00     0.034 H 
ATOM     31  H   LIG d   1      -4.562  -0.595  -1.026  0.00  0.00     0.090 H 
ATOM     32  H   LIG d   1       2.654   2.229   1.036  0.00  0.00     0.084 H 
ATOM     33  H   LIG d   1       4.401  -1.879  -0.779  0.00  0.00     0.088 H 
ATOM     34  H   LIG d   1       5.013   2.025   0.603  0.00  0.00     0.087 H 
ENDROOT
BRANCH   5  35
ATOM     35  C   LIG d   1      -1.663   1.268  -1.577  0.00  0.00    -0.066 C 
ATOM     36  H   LIG d   1      -0.600   1.296  -1.696  0.00  0.00     0.028 H 
ATOM     37  H   LIG d   1      -2.084   2.194  -1.908  0.00  0.00     0.028 H 
ATOM     38  H   LIG d   1      -2.066   0.465  -2.158  0.00  0.00     0.028 H 
ENDBRANCH   5  35
BRANCH  10  39
ATOM     39  O   LIG d   1      -4.143   1.860  -0.908  0.00  0.00    -0.392 OA
ATOM     40  H   LIG d   1      -3.884   1.578  -1.799  0.00  0.00     0.210 HD
ENDBRANCH  10  39
BRANCH   6  41
ATOM     41  O   LIG d   1      -2.658  -2.551   0.249  0.00  0.00    -0.392 OA
ATOM     42  H   LIG d   1      -2.866  -2.444   1.190  0.00  0.00     0.210 HD
ENDBRANCH   6  41
BRANCH  12  43
ATOM     43  O   LIG d   1      -4.615  -0.982   0.969  0.00  0.00    -0.390 OA
ATOM     44  H   LIG d   1      -4.051  -0.893   1.753  0.00  0.00     0.210 HD
ENDBRANCH  12  43
BRANCH  17  45
ATOM     45  O   LIG d   1       6.216  -0.074  -0.363  0.00  0.00    -0.361 OA
ATOM     46  H   LIG d   1       6.554  -0.874  -0.715  0.00  0.00     0.217 HD
ENDBRANCH  17  45
TORSDOF 5
