@<TRIPOS>MOLECULE
689
 45 47 0 0 0
SMALL
GASTEIGER

@<TRIPOS>ATOM
      1 C          -2.4340    2.3360   -0.9010 C.3     1  LIG1       -0.0611
      2 C          -1.7550    0.9900   -1.1610 C.3     1  LIG1       -0.0243
      3 C          -0.3070    1.0230   -0.6430 C.3     1  LIG1        0.0135
      4 C          -0.3420    1.2380    0.8500 C.2     1  LIG1       -0.0701
      5 C           0.8470    1.8840    1.5130 C.3     1  LIG1       -0.0434
      6 C          -1.3490    0.8920    1.5860 C.2     1  LIG1       -0.0811
      7 C          -2.6090    0.2640    1.0720 C.3     1  LIG1       -0.0154
      8 C          -2.9350   -0.9690    1.9170 C.3     1  LIG1       -0.0583
      9 C          -2.4620   -0.1540   -0.3880 C.3     1  LIG1        0.0264
     10 C          -3.8590   -0.3630   -0.9760 C.3     1  LIG1        0.0527
     11 O          -4.5200   -1.4150   -0.2700 O.3     1  LIG1       -0.3944
     12 C          -1.6760   -1.4500   -0.5340 C.3     1  LIG1        0.0570
     13 O          -0.3370   -1.3040   -0.0730 O.3     1  LIG1       -0.3707
     14 C           0.3170   -0.3620   -0.8900 C.3     1  LIG1        0.0903
     15 C           1.7880   -0.3370   -0.5600 C.ar    1  LIG1       -0.0181
     16 C           2.6960    0.1300   -1.4920 C.ar    1  LIG1       -0.0527
     17 C           4.0440    0.1590   -1.1900 C.ar    1  LIG1       -0.0198
     18 C           4.4860   -0.2900    0.0460 C.ar    1  LIG1        0.1169
     19 O           5.8120   -0.2670    0.3430 O.3     1  LIG1       -0.5068
     20 C           3.5730   -0.7630    0.9770 C.ar    1  LIG1       -0.0198
     21 C           2.2260   -0.7850    0.6720 C.ar    1  LIG1       -0.0527
     22 H          -1.9252    3.1033   -1.4462 H       1  LIG1        0.0233
     23 H          -2.3975    2.5577    0.1451 H       1  LIG1        0.0233
     24 H          -3.4542    2.2884   -1.2201 H       1  LIG1        0.0233
     25 H          -1.7988    0.8180   -2.2162 H       1  LIG1        0.0312
     26 H           0.2481    1.7963   -1.1317 H       1  LIG1        0.0377
     27 H           1.5886    2.1084    0.7750 H       1  LIG1        0.0274
     28 H           1.2579    1.2143    2.2393 H       1  LIG1        0.0274
     29 H           0.5389    2.7880    1.9954 H       1  LIG1        0.0274
     30 H          -1.2791    1.0610    2.6017 H       1  LIG1        0.0575
     31 H          -3.3977    0.9840    1.1391 H       1  LIG1        0.0347
     32 H          -2.1366   -1.6769    1.8378 H       1  LIG1        0.0236
     33 H          -3.8421   -1.4135    1.5642 H       1  LIG1        0.0236
     34 H          -3.0544   -0.6789    2.9400 H       1  LIG1        0.0236
     35 H          -3.7753   -0.6250   -2.0101 H       1  LIG1        0.0564
     36 H          -4.4246    0.5404   -0.8818 H       1  LIG1        0.0564
     37 H          -4.0071   -2.2339   -0.3555 H       1  LIG1        0.2094
     38 H          -1.6594   -1.7320   -1.5660 H       1  LIG1        0.0566
     39 H          -2.1547   -2.2011    0.0590 H       1  LIG1        0.0566
     40 H           0.2035   -0.6277   -1.9203 H       1  LIG1        0.0652
     41 H           2.3668    0.4571   -2.4138 H       1  LIG1        0.0622
     42 H           4.7212    0.5142   -1.8830 H       1  LIG1        0.0654
     43 H           6.4277    0.0528   -0.2868 H       1  LIG1        0.2921
     44 H           3.8998   -1.0982    1.8967 H       1  LIG1        0.0654
     45 H           1.5462   -1.1362    1.3645 H       1  LIG1        0.0622
@<TRIPOS>BOND
     1     1     2    1
     2     2     3    1
     3     2     9    1
     4     3     4    1
     5     3    14    1
     6     4     5    1
     7     4     6    2
     8     6     7    1
     9     7     8    1
    10     7     9    1
    11     9    10    1
    12     9    12    1
    13    10    11    1
    14    12    13    1
    15    13    14    1
    16    14    15    1
    17    15    16   ar
    18    15    21   ar
    19    16    17   ar
    20    17    18   ar
    21    18    19    1
    22    18    20   ar
    23    20    21   ar
    24     1    22    1
    25     1    23    1
    26     1    24    1
    27     2    25    1
    28     3    26    1
    29     5    27    1
    30     5    28    1
    31     5    29    1
    32     6    30    1
    33     7    31    1
    34     8    32    1
    35     8    33    1
    36     8    34    1
    37    10    35    1
    38    10    36    1
    39    11    37    1
    40    12    38    1
    41    12    39    1
    42    14    40    1
    43    16    41    1
    44    17    42    1
    45    19    43    1
    46    20    44    1
    47    21    45    1
