REMARK  7 active torsions:
REMARK  status: ('A' for Active; 'I' for Inactive)
REMARK    1  A    between atoms: C_1  and  C_2 
REMARK    2  A    between atoms: C_4  and  C_5 
REMARK    3  A    between atoms: C_7  and  C_8 
REMARK    4  A    between atoms: C_9  and  C_10 
REMARK    5  A    between atoms: C_10  and  O_11 
REMARK    6  A    between atoms: C_14  and  C_15 
REMARK    7  A    between atoms: C_18  and  O_19 
ROOT
ATOM      1  C   LIG d   1      -1.755   0.990  -1.161  0.00  0.00    -0.036 C 
ATOM      2  C   LIG d   1      -0.307   1.023  -0.643  0.00  0.00     0.000 C 
ATOM      3  C   LIG d   1      -0.342   1.238   0.850  0.00  0.00    -0.080 C 
ATOM      4  C   LIG d   1      -1.349   0.892   1.586  0.00  0.00    -0.096 C 
ATOM      5  C   LIG d   1      -2.609   0.264   1.072  0.00  0.00    -0.029 C 
ATOM      6  C   LIG d   1      -2.462  -0.154  -0.388  0.00  0.00     0.013 C 
ATOM      7  C   LIG d   1      -1.676  -1.450  -0.534  0.00  0.00     0.030 C 
ATOM      8  O   LIG d   1      -0.337  -1.304  -0.073  0.00  0.00    -0.380 OA
ATOM      9  C   LIG d   1       0.317  -0.362  -0.890  0.00  0.00     0.071 C 
ATOM     10  H   LIG d   1      -1.799   0.818  -2.216  0.00  0.00     0.042 H 
ATOM     11  H   LIG d   1       0.248   1.796  -1.132  0.00  0.00     0.051 H 
ATOM     12  H   LIG d   1      -1.279   1.061   2.602  0.00  0.00     0.077 H 
ATOM     13  H   LIG d   1      -3.398   0.984   1.139  0.00  0.00     0.047 H 
ATOM     14  H   LIG d   1      -1.659  -1.732  -1.566  0.00  0.00     0.075 H 
ATOM     15  H   LIG d   1      -2.155  -2.201   0.059  0.00  0.00     0.075 H 
ATOM     16  H   LIG d   1       0.203  -0.628  -1.920  0.00  0.00     0.092 H 
ENDROOT
BRANCH   9  17
ATOM     17  C   LIG d   1       1.788  -0.337  -0.560  0.00  0.00    -0.029 A 
ATOM     18  C   LIG d   1       2.696   0.130  -1.492  0.00  0.00    -0.072 A 
ATOM     19  C   LIG d   1       4.044   0.159  -1.190  0.00  0.00    -0.050 A 
ATOM     20  H   LIG d   1       2.367   0.457  -2.414  0.00  0.00     0.084 H 
ATOM     21  C   LIG d   1       4.486  -0.290   0.046  0.00  0.00     0.065 A 
ATOM     22  H   LIG d   1       4.721   0.514  -1.883  0.00  0.00     0.087 H 
ATOM     23  C   LIG d   1       3.573  -0.763   0.977  0.00  0.00    -0.050 A 
ATOM     24  C   LIG d   1       2.226  -0.785   0.672  0.00  0.00    -0.072 A 
ATOM     25  H   LIG d   1       3.900  -1.098   1.897  0.00  0.00     0.087 H 
ATOM     26  H   LIG d   1       1.546  -1.136   1.365  0.00  0.00     0.084 H 
BRANCH  21  27
ATOM     27  O   LIG d   1       5.812  -0.267   0.343  0.00  0.00    -0.361 OA
ATOM     28  H   LIG d   1       6.428   0.053  -0.287  0.00  0.00     0.217 HD
ENDBRANCH  21  27
ENDBRANCH   9  17
BRANCH   1  29
ATOM     29  C   LIG d   1      -2.434   2.336  -0.901  0.00  0.00    -0.071 C 
ATOM     30  H   LIG d   1      -1.925   3.103  -1.446  0.00  0.00     0.028 H 
ATOM     31  H   LIG d   1      -2.397   2.558   0.145  0.00  0.00     0.028 H 
ATOM     32  H   LIG d   1      -3.454   2.288  -1.220  0.00  0.00     0.028 H 
ENDBRANCH   1  29
BRANCH   3  33
ATOM     33  C   LIG d   1       0.847   1.884   1.513  0.00  0.00    -0.054 C 
ATOM     34  H   LIG d   1       1.589   2.108   0.775  0.00  0.00     0.033 H 
ATOM     35  H   LIG d   1       1.258   1.214   2.239  0.00  0.00     0.033 H 
ATOM     36  H   LIG d   1       0.539   2.788   1.995  0.00  0.00     0.033 H 
ENDBRANCH   3  33
BRANCH   6  37
ATOM     37  C   LIG d   1      -3.859  -0.363  -0.976  0.00  0.00     0.027 C 
ATOM     38  H   LIG d   1      -3.775  -0.625  -2.010  0.00  0.00     0.075 H 
ATOM     39  H   LIG d   1      -4.425   0.540  -0.882  0.00  0.00     0.075 H 
BRANCH  37  40
ATOM     40  O   LIG d   1      -4.520  -1.415  -0.270  0.00  0.00    -0.400 OA
ATOM     41  H   LIG d   1      -4.007  -2.234  -0.355  0.00  0.00     0.209 HD
ENDBRANCH  37  40
ENDBRANCH   6  37
BRANCH   5  42
ATOM     42  C   LIG d   1      -2.935  -0.969   1.917  0.00  0.00    -0.069 C 
ATOM     43  H   LIG d   1      -2.137  -1.677   1.838  0.00  0.00     0.028 H 
ATOM     44  H   LIG d   1      -3.842  -1.413   1.564  0.00  0.00     0.028 H 
ATOM     45  H   LIG d   1      -3.054  -0.679   2.940  0.00  0.00     0.028 H 
ENDBRANCH   5  42
TORSDOF 7
