@<TRIPOS>MOLECULE
AEJ
 67 72 0 0 0
SMALL
GASTEIGER

@<TRIPOS>ATOM
      1 O          -4.1930    5.2120    0.3420 O.3     1  LIG1       -0.5068
      2 C          -3.8320    3.9130    0.1710 C.ar    1  LIG1        0.1171
      3 C          -2.8100    3.5840   -0.7080 C.ar    1  LIG1       -0.0198
      4 C          -2.4490    2.2630   -0.8780 C.ar    1  LIG1       -0.0528
      5 C          -3.1010    1.2610   -0.1750 C.ar    1  LIG1       -0.0193
      6 C          -4.1160    1.5880    0.7000 C.ar    1  LIG1       -0.0372
      7 C          -4.4790    2.9120    0.8780 C.ar    1  LIG1       -0.0166
      8 C          -2.6790   -0.1680   -0.3910 C.3     1  LIG1        0.0742
      9 N          -3.0970   -1.0080    0.7340 N.pl3   1  LIG1       -0.3185
     10 C          -2.8710   -2.3320    0.3510 C.ar    1  LIG1        0.0304
     11 C          -2.0220   -3.1380    1.0990 C.ar    1  LIG1       -0.0406
     12 C          -1.8010   -4.4470    0.7170 C.ar    1  LIG1       -0.0600
     13 C          -2.4250   -4.9560   -0.4070 C.ar    1  LIG1       -0.0616
     14 C          -3.2710   -4.1560   -1.1540 C.ar    1  LIG1       -0.0600
     15 C          -3.5000   -2.8480   -0.7750 C.ar    1  LIG1       -0.0406
     16 C          -4.5520   -0.8480    0.8620 C.3     1  LIG1        0.0171
     17 C          -4.8430    0.5210    1.4800 C.3     1  LIG1       -0.0114
     18 C          -1.1790   -0.2270   -0.5230 C.ar    1  LIG1       -0.0226
     19 C          -0.6000   -0.3130   -1.7760 C.ar    1  LIG1       -0.0547
     20 C           0.7750   -0.3680   -1.9000 C.ar    1  LIG1       -0.0403
     21 C           1.5750   -0.3360   -0.7650 C.ar    1  LIG1        0.0300
     22 C           0.9900   -0.2500    0.4910 C.ar    1  LIG1       -0.0403
     23 C          -0.3850   -0.1900    0.6090 C.ar    1  LIG1       -0.0547
     24 N           2.9660   -0.3920   -0.8880 N.pl3   1  LIG1       -0.3195
     25 C           3.3800    0.8480   -1.5570 C.3     1  LIG1        0.0525
     26 C           4.9060    0.9090   -1.6200 C.3     1  LIG1       -0.0155
     27 N           5.4590    0.9550   -0.2600 N.4     1  LIG1        0.2396
     28 C           5.0390   -0.2760    0.4170 C.3     1  LIG1       -0.0048
     29 C           3.5110   -0.3410    0.4740 C.3     1  LIG1        0.0553
     30 C           5.5960   -0.2980    1.8430 C.3     1  LIG1       -0.0080
     31 C           7.1260   -0.2780    1.7880 C.3     1  LIG1       -0.0431
     32 C           7.5760    0.9420    0.9790 C.3     1  LIG1       -0.0123
     33 C           6.9190    0.8990   -0.4020 C.3     1  LIG1       -0.0315
     34 H          -3.7542    5.8872   -0.1371 H       1  LIG1        0.2921
     35 H          -2.3210    4.3255   -1.2334 H       1  LIG1        0.0654
     36 H          -1.6891    2.0192   -1.5323 H       1  LIG1        0.0622
     37 H          -5.2335    3.1543    1.5391 H       1  LIG1        0.0657
     38 H          -3.1443   -0.5324   -1.2830 H       1  LIG1        0.0600
     39 H          -1.5570   -2.7593    1.9389 H       1  LIG1        0.0636
     40 H          -1.1693   -5.0459    1.2713 H       1  LIG1        0.0618
     41 H          -2.2593   -5.9347   -0.6892 H       1  LIG1        0.0618
     42 H          -3.7314   -4.5371   -1.9953 H       1  LIG1        0.0618
     43 H          -4.1379   -2.2543   -1.3278 H       1  LIG1        0.0636
     44 H          -4.9448   -1.6183    1.4923 H       1  LIG1        0.0467
     45 H          -5.0124   -0.9182   -0.1013 H       1  LIG1        0.0467
     46 H          -5.8956    0.7104    1.4483 H       1  LIG1        0.0328
     47 H          -4.5097    0.5321    2.4967 H       1  LIG1        0.0328
     48 H          -1.1952   -0.3361   -2.6187 H       1  LIG1        0.0622
     49 H           1.2072   -0.4328   -2.8349 H       1  LIG1        0.0636
     50 H           1.5820   -0.2309    1.3361 H       1  LIG1        0.0636
     51 H          -0.8200   -0.1175    1.5420 H       1  LIG1        0.0622
     52 H           3.0119    1.6894   -1.0079 H       1  LIG1        0.0516
     53 H           2.9814    0.8674   -2.5498 H       1  LIG1        0.0516
     54 H           5.2046    1.7864   -2.1547 H       1  LIG1        0.0830
     55 H           5.2738    0.0383   -2.1215 H       1  LIG1        0.0830
     56 H           5.1565    1.7840    0.2516 H       1  LIG1        0.2037
     57 H           5.4133   -1.1174   -0.1279 H       1  LIG1        0.0867
     58 H           3.2122   -1.2178    1.0096 H       1  LIG1        0.0520
     59 H           3.1380    0.5294    0.9722 H       1  LIG1        0.0520
     60 H           5.2677   -1.1860    2.3415 H       1  LIG1        0.0320
     61 H           5.2450    0.5592    2.3786 H       1  LIG1        0.0320
     62 H           7.4805   -1.1715    1.3181 H       1  LIG1        0.0269
     63 H           7.5243   -0.2232    2.7796 H       1  LIG1        0.0269
     64 H           8.6403    0.9264    0.8698 H       1  LIG1        0.0317
     65 H           7.2863    1.8378    1.4875 H       1  LIG1        0.0317
     66 H           7.2520    1.7356   -0.9800 H       1  LIG1        0.0814
     67 H           7.1914   -0.0109   -0.8947 H       1  LIG1        0.0814
@<TRIPOS>BOND
     1     1     2    1
     2     2     3   ar
     3     2     7   ar
     4     3     4   ar
     5     4     5   ar
     6     5     6   ar
     7     5     8    1
     8     6     7   ar
     9     6    17    1
    10     8     9    1
    11     8    18    1
    12     9    10    1
    13     9    16    1
    14    10    11   ar
    15    10    15   ar
    16    11    12   ar
    17    12    13   ar
    18    13    14   ar
    19    14    15   ar
    20    16    17    1
    21    18    19   ar
    22    18    23   ar
    23    19    20   ar
    24    20    21   ar
    25    21    22   ar
    26    21    24    1
    27    22    23   ar
    28    24    25    1
    29    24    29    1
    30    25    26    1
    31    26    27    1
    32    27    28    1
    33    27    33    1
    34    28    29    1
    35    28    30    1
    36    30    31    1
    37    31    32    1
    38    32    33    1
    39     1    34    1
    40     3    35    1
    41     4    36    1
    42     7    37    1
    43     8    38    1
    44    11    39    1
    45    12    40    1
    46    13    41    1
    47    14    42    1
    48    15    43    1
    49    16    44    1
    50    16    45    1
    51    17    46    1
    52    17    47    1
    53    19    48    1
    54    20    49    1
    55    22    50    1
    56    23    51    1
    57    25    52    1
    58    25    53    1
    59    26    54    1
    60    26    55    1
    61    27    56    1
    62    28    57    1
    63    29    58    1
    64    29    59    1
    65    30    60    1
    66    30    61    1
    67    31    62    1
    68    31    63    1
    69    32    64    1
    70    32    65    1
    71    33    66    1
    72    33    67    1
