REMARK  4 active torsions:
REMARK  status: ('A' for Active; 'I' for Inactive)
REMARK    1  A    between atoms: O_1  and  C_2 
REMARK    2  A    between atoms: C_8  and  C_18 
REMARK    3  A    between atoms: N_9  and  C_10 
REMARK    4  A    between atoms: C_21  and  N_24 
ROOT
ATOM      1  C   LIG d   1      -1.179  -0.227  -0.523  0.00  0.00    -0.035 A 
ATOM      2  C   LIG d   1      -0.600  -0.313  -1.776  0.00  0.00    -0.073 A 
ATOM      3  C   LIG d   1       0.775  -0.368  -1.900  0.00  0.00    -0.062 A 
ATOM      4  C   LIG d   1       1.575  -0.336  -0.765  0.00  0.00     0.010 A 
ATOM      5  C   LIG d   1       0.990  -0.250   0.491  0.00  0.00    -0.062 A 
ATOM      6  C   LIG d   1      -0.385  -0.190   0.609  0.00  0.00    -0.073 A 
ATOM      7  H   LIG d   1      -1.195  -0.336  -2.619  0.00  0.00     0.084 H 
ATOM      8  H   LIG d   1       1.207  -0.433  -2.835  0.00  0.00     0.086 H 
ATOM      9  H   LIG d   1       1.582  -0.231   1.336  0.00  0.00     0.086 H 
ATOM     10  H   LIG d   1      -0.820  -0.117   1.542  0.00  0.00     0.084 H 
ENDROOT
BRANCH   1  11
ATOM     11  C   LIG d   1      -2.679  -0.168  -0.391  0.00  0.00     0.050 C 
ATOM     12  C   LIG d   1      -3.101   1.261  -0.175  0.00  0.00    -0.029 A 
ATOM     13  C   LIG d   1      -2.449   2.263  -0.878  0.00  0.00    -0.072 A 
ATOM     14  C   LIG d   1      -4.116   1.588   0.700  0.00  0.00    -0.046 A 
ATOM     15  C   LIG d   1      -2.810   3.584  -0.708  0.00  0.00    -0.050 A 
ATOM     16  H   LIG d   1      -1.689   2.019  -1.532  0.00  0.00     0.084 H 
ATOM     17  C   LIG d   1      -3.832   3.913   0.171  0.00  0.00     0.066 A 
ATOM     18  H   LIG d   1      -2.321   4.325  -1.233  0.00  0.00     0.087 H 
ATOM     19  C   LIG d   1      -4.479   2.912   0.878  0.00  0.00    -0.044 A 
ATOM     20  H   LIG d   1      -5.234   3.154   1.539  0.00  0.00     0.088 H 
ATOM     21  C   LIG d   1      -4.843   0.521   1.480  0.00  0.00    -0.029 C 
ATOM     22  C   LIG d   1      -4.552  -0.848   0.862  0.00  0.00    -0.012 C 
ATOM     23  H   LIG d   1      -5.896   0.710   1.448  0.00  0.00     0.042 H 
ATOM     24  H   LIG d   1      -4.510   0.532   2.497  0.00  0.00     0.042 H 
ATOM     25  N   LIG d   1      -3.097  -1.008   0.734  0.00  0.00    -0.270 NA
ATOM     26  H   LIG d   1      -4.945  -1.618   1.492  0.00  0.00     0.056 H 
ATOM     27  H   LIG d   1      -5.012  -0.918  -0.101  0.00  0.00     0.056 H 
ATOM     28  H   LIG d   1      -3.144  -0.532  -1.283  0.00  0.00     0.079 H 
BRANCH  17  29
ATOM     29  O   LIG d   1      -4.193   5.212   0.342  0.00  0.00    -0.361 OA
ATOM     30  H   LIG d   1      -3.754   5.887  -0.137  0.00  0.00     0.217 HD
ENDBRANCH  17  29
BRANCH  25  31
ATOM     31  C   LIG d   1      -2.871  -2.332   0.351  0.00  0.00     0.011 A 
ATOM     32  C   LIG d   1      -2.022  -3.138   1.099  0.00  0.00    -0.062 A 
ATOM     33  C   LIG d   1      -1.801  -4.447   0.717  0.00  0.00    -0.081 A 
ATOM     34  H   LIG d   1      -1.557  -2.759   1.939  0.00  0.00     0.086 H 
ATOM     35  C   LIG d   1      -2.425  -4.956  -0.407  0.00  0.00    -0.083 A 
ATOM     36  H   LIG d   1      -1.169  -5.046   1.271  0.00  0.00     0.083 H 
ATOM     37  C   LIG d   1      -3.271  -4.156  -1.154  0.00  0.00    -0.081 A 
ATOM     38  H   LIG d   1      -2.259  -5.935  -0.689  0.00  0.00     0.083 H 
ATOM     39  C   LIG d   1      -3.500  -2.848  -0.775  0.00  0.00    -0.062 A 
ATOM     40  H   LIG d   1      -3.731  -4.537  -1.995  0.00  0.00     0.083 H 
ATOM     41  H   LIG d   1      -4.138  -2.254  -1.328  0.00  0.00     0.086 H 
ENDBRANCH  25  31
ENDBRANCH   1  11
BRANCH   4  42
ATOM     42  N   LIG d   1       2.966  -0.392  -0.888  0.00  0.00    -0.280 NA
ATOM     43  C   LIG d   1       3.380   0.848  -1.557  0.00  0.00     0.006 C 
ATOM     44  C   LIG d   1       4.906   0.909  -1.620  0.00  0.00     0.095 C 
ATOM     45  H   LIG d   1       3.012   1.689  -1.008  0.00  0.00     0.058 H 
ATOM     46  H   LIG d   1       2.981   0.867  -2.550  0.00  0.00     0.058 H 
ATOM     47  N   LIG d   1       5.459   0.955  -0.260  0.00  0.00    -0.065 N 
ATOM     48  H   LIG d   1       5.205   1.786  -2.155  0.00  0.00     0.077 H 
ATOM     49  H   LIG d   1       5.274   0.038  -2.122  0.00  0.00     0.077 H 
ATOM     50  C   LIG d   1       5.039  -0.276   0.417  0.00  0.00     0.115 C 
ATOM     51  C   LIG d   1       6.919   0.899  -0.402  0.00  0.00     0.084 C 
ATOM     52  H   LIG d   1       5.157   1.784   0.252  0.00  0.00     0.280 HD
ATOM     53  C   LIG d   1       3.511  -0.341   0.474  0.00  0.00     0.010 C 
ATOM     54  C   LIG d   1       5.596  -0.298   1.843  0.00  0.00    -0.037 C 
ATOM     55  H   LIG d   1       5.413  -1.117  -0.128  0.00  0.00     0.086 H 
ATOM     56  H   LIG d   1       3.212  -1.218   1.010  0.00  0.00     0.059 H 
ATOM     57  H   LIG d   1       3.138   0.529   0.972  0.00  0.00     0.059 H 
ATOM     58  C   LIG d   1       7.126  -0.278   1.788  0.00  0.00    -0.062 C 
ATOM     59  H   LIG d   1       5.268  -1.186   2.341  0.00  0.00     0.036 H 
ATOM     60  H   LIG d   1       5.245   0.559   2.379  0.00  0.00     0.036 H 
ATOM     61  C   LIG d   1       7.576   0.942   0.979  0.00  0.00    -0.042 C 
ATOM     62  H   LIG d   1       7.481  -1.171   1.318  0.00  0.00     0.033 H 
ATOM     63  H   LIG d   1       7.524  -0.223   2.780  0.00  0.00     0.033 H 
ATOM     64  H   LIG d   1       8.640   0.926   0.870  0.00  0.00     0.035 H 
ATOM     65  H   LIG d   1       7.286   1.838   1.488  0.00  0.00     0.035 H 
ATOM     66  H   LIG d   1       7.252   1.736  -0.980  0.00  0.00     0.076 H 
ATOM     67  H   LIG d   1       7.191  -0.011  -0.895  0.00  0.00     0.076 H 
ENDBRANCH   4  42
TORSDOF 4
