@<TRIPOS>MOLECULE
AIH
 66 70 0 0 0
SMALL
GASTEIGER

@<TRIPOS>ATOM
      1 C          -2.5420    0.0640    1.6010 C.3     1  LIG1        0.0760
      2 C          -1.8200   -0.9690    0.7200 C.3     1  LIG1        0.1412
      3 O          -2.3430   -0.9010   -0.5900 O.3     1  LIG1       -0.4817
      4 C          -3.6280   -1.3090   -0.6780 C.ar    1  LIG1        0.1350
      5 C          -3.9990   -1.8630   -1.9070 C.ar    1  LIG1       -0.0154
      6 C          -5.2880   -2.2910   -2.1360 C.ar    1  LIG1       -0.0167
      7 C          -6.2460   -2.1750   -1.1390 C.ar    1  LIG1        0.1181
      8 O          -7.5230   -2.5850   -1.3640 O.3     1  LIG1       -0.5067
      9 C          -5.8900   -1.6390    0.0850 C.ar    1  LIG1       -0.0032
     10 C          -4.5830   -1.2190    0.3230 C.ar    1  LIG1        0.0537
     11 S          -4.1980   -0.6060    1.9350 S.3     1  LIG1       -0.1094
     12 C          -2.6540    1.3770    0.8690 C.ar    1  LIG1       -0.0301
     13 C          -3.6160    1.5400   -0.1110 C.ar    1  LIG1       -0.0539
     14 C          -3.7200    2.7420   -0.7840 C.ar    1  LIG1       -0.0199
     15 C          -2.8600    3.7860   -0.4750 C.ar    1  LIG1        0.1169
     16 O          -2.9610    4.9690   -1.1360 O.3     1  LIG1       -0.5068
     17 C          -1.8960    3.6190    0.5090 C.ar    1  LIG1       -0.0199
     18 C          -1.7990    2.4170    1.1820 C.ar    1  LIG1       -0.0539
     19 C          -0.3440   -0.6640    0.6910 C.ar    1  LIG1       -0.0057
     20 C           0.5250   -1.3830    1.4920 C.ar    1  LIG1       -0.0516
     21 C           1.8780   -1.1050    1.4670 C.ar    1  LIG1       -0.0196
     22 C           2.3650   -0.1050    0.6380 C.ar    1  LIG1        0.1208
     23 C           1.4900    0.6180   -0.1600 C.ar    1  LIG1       -0.0196
     24 C           0.1380    0.3330   -0.1360 C.ar    1  LIG1       -0.0516
     25 O           3.6950    0.1700    0.6110 O.3     1  LIG1       -0.4867
     26 C           3.8790    1.2330   -0.3260 C.3     1  LIG1        0.1291
     27 C           5.3640    1.5930   -0.4040 C.3     1  LIG1        0.0031
     28 N           6.1150    0.4560   -0.9530 N.4     1  LIG1        0.2380
     29 C           7.5500    0.7690   -0.7760 C.3     1  LIG1       -0.0287
     30 C           8.2430   -0.5290   -0.3220 C.3     1  LIG1        0.0038
     31 C           9.2840   -0.9640   -1.3560 C.3     1  LIG1       -0.0572
     32 C           7.1130   -1.5790   -0.2230 C.3     1  LIG1        0.0038
     33 C           7.3050   -2.4780    1.0000 C.3     1  LIG1       -0.0572
     34 C           5.8420   -0.7040   -0.0670 C.3     1  LIG1       -0.0287
     35 H          -2.0058    0.2401    2.5100 H       1  LIG1        0.0504
     36 H          -1.9683   -1.9510    1.1182 H       1  LIG1        0.0799
     37 H          -3.2946   -1.9528   -2.6558 H       1  LIG1        0.0656
     38 H          -5.5414   -2.6982   -3.0498 H       1  LIG1        0.0655
     39 H          -7.7591   -2.9475   -2.1951 H       1  LIG1        0.2921
     40 H          -6.5992   -1.5492    0.8293 H       1  LIG1        0.0666
     41 H          -4.2563    0.7636   -0.3396 H       1  LIG1        0.0622
     42 H          -4.4370    2.8633   -1.5162 H       1  LIG1        0.0654
     43 H          -3.6124    5.0804   -1.8002 H       1  LIG1        0.2921
     44 H          -1.2521    4.3924    0.7377 H       1  LIG1        0.0654
     45 H          -1.0874    2.2951    1.9194 H       1  LIG1        0.0622
     46 H           0.1625   -2.1272    2.1083 H       1  LIG1        0.0623
     47 H           2.5262   -1.6411    2.0649 H       1  LIG1        0.0654
     48 H           1.8487    1.3682   -0.7712 H       1  LIG1        0.0654
     49 H          -0.5120    0.8648   -0.7358 H       1  LIG1        0.0623
     50 H           3.3208    2.0889   -0.0085 H       1  LIG1        0.0751
     51 H           3.5365    0.9214   -1.2906 H       1  LIG1        0.0751
     52 H           5.7278    1.8209    0.5761 H       1  LIG1        0.0848
     53 H           5.4918    2.4449   -1.0387 H       1  LIG1        0.0848
     54 H           5.8695    0.2736   -1.9261 H       1  LIG1        0.2035
     55 H           7.6710    1.5292   -0.0328 H       1  LIG1        0.0817
     56 H           7.9768    1.1299   -1.6884 H       1  LIG1        0.0817
     57 H           8.7570   -0.4052    0.6082 H       1  LIG1        0.0354
     58 H           8.8090   -1.0994   -2.3052 H       1  LIG1        0.0234
     59 H           9.7310   -1.8855   -1.0462 H       1  LIG1        0.0234
     60 H          10.0398   -0.2113   -1.4396 H       1  LIG1        0.0234
     61 H           7.0757   -2.2391   -1.0643 H       1  LIG1        0.0354
     62 H           7.3507   -1.8747    1.8825 H       1  LIG1        0.0234
     63 H           8.2160   -3.0298    0.8976 H       1  LIG1        0.0234
     64 H           6.4825   -3.1583    1.0752 H       1  LIG1        0.0234
     65 H           4.9698   -1.2344   -0.3877 H       1  LIG1        0.0817
     66 H           5.6506   -0.4206    0.9469 H       1  LIG1        0.0817
@<TRIPOS>BOND
     1     1     2    1
     2     1    11    1
     3     1    12    1
     4     2     3    1
     5     2    19    1
     6     3     4    1
     7     4     5   ar
     8     4    10   ar
     9     5     6   ar
    10     6     7   ar
    11     7     8    1
    12     7     9   ar
    13     9    10   ar
    14    10    11    1
    15    12    13   ar
    16    12    18   ar
    17    13    14   ar
    18    14    15   ar
    19    15    16    1
    20    15    17   ar
    21    17    18   ar
    22    19    20   ar
    23    19    24   ar
    24    20    21   ar
    25    21    22   ar
    26    22    23   ar
    27    22    25    1
    28    23    24   ar
    29    25    26    1
    30    26    27    1
    31    27    28    1
    32    28    29    1
    33    28    34    1
    34    29    30    1
    35    30    31    1
    36    30    32    1
    37    32    33    1
    38    32    34    1
    39     1    35    1
    40     2    36    1
    41     5    37    1
    42     6    38    1
    43     8    39    1
    44     9    40    1
    45    13    41    1
    46    14    42    1
    47    16    43    1
    48    17    44    1
    49    18    45    1
    50    20    46    1
    51    21    47    1
    52    23    48    1
    53    24    49    1
    54    26    50    1
    55    26    51    1
    56    27    52    1
    57    27    53    1
    58    28    54    1
    59    29    55    1
    60    29    56    1
    61    30    57    1
    62    31    58    1
    63    31    59    1
    64    31    60    1
    65    32    61    1
    66    33    62    1
    67    33    63    1
    68    33    64    1
    69    34    65    1
    70    34    66    1
