REMARK  10 active torsions:
REMARK  status: ('A' for Active; 'I' for Inactive)
REMARK    1  A    between atoms: C_1  and  C_12 
REMARK    2  A    between atoms: C_2  and  C_19 
REMARK    3  A    between atoms: C_7  and  O_8 
REMARK    4  A    between atoms: C_15  and  O_16 
REMARK    5  A    between atoms: C_22  and  O_25 
REMARK    6  A    between atoms: O_25  and  C_26 
REMARK    7  A    between atoms: C_26  and  C_27 
REMARK    8  A    between atoms: C_27  and  N_28 
REMARK    9  A    between atoms: C_30  and  C_31 
REMARK   10  A    between atoms: C_32  and  C_33 
ROOT
ATOM      1  C   LIG d   1      -0.344  -0.664   0.691  0.00  0.00    -0.027 A 
ATOM      2  C   LIG d   1       0.525  -1.383   1.492  0.00  0.00    -0.072 A 
ATOM      3  C   LIG d   1       1.878  -1.105   1.467  0.00  0.00    -0.050 A 
ATOM      4  C   LIG d   1       2.365  -0.105   0.638  0.00  0.00     0.068 A 
ATOM      5  C   LIG d   1       1.490   0.618  -0.160  0.00  0.00    -0.050 A 
ATOM      6  C   LIG d   1       0.138   0.333  -0.136  0.00  0.00    -0.072 A 
ATOM      7  H   LIG d   1       0.163  -2.127   2.108  0.00  0.00     0.084 H 
ATOM      8  H   LIG d   1       2.526  -1.641   2.065  0.00  0.00     0.087 H 
ATOM      9  H   LIG d   1       1.849   1.368  -0.771  0.00  0.00     0.087 H 
ATOM     10  H   LIG d   1      -0.512   0.865  -0.736  0.00  0.00     0.084 H 
ENDROOT
BRANCH   1  11
ATOM     11  C   LIG d   1      -1.820  -0.969   0.720  0.00  0.00     0.086 C 
ATOM     12  C   LIG d   1      -2.542   0.064   1.601  0.00  0.00     0.050 C 
ATOM     13  S   LIG d   1      -4.198  -0.606   1.935  0.00  0.00    -0.114 SA
ATOM     14  H   LIG d   1      -2.006   0.240   2.510  0.00  0.00     0.069 H 
ATOM     15  C   LIG d   1      -4.583  -1.219   0.323  0.00  0.00     0.037 A 
ATOM     16  C   LIG d   1      -3.628  -1.309  -0.678  0.00  0.00     0.086 A 
ATOM     17  C   LIG d   1      -5.890  -1.639   0.085  0.00  0.00    -0.032 A 
ATOM     18  O   LIG d   1      -2.343  -0.901  -0.590  0.00  0.00    -0.338 OA
ATOM     19  C   LIG d   1      -3.999  -1.863  -1.907  0.00  0.00    -0.047 A 
ATOM     20  C   LIG d   1      -5.288  -2.291  -2.136  0.00  0.00    -0.048 A 
ATOM     21  H   LIG d   1      -3.295  -1.953  -2.656  0.00  0.00     0.087 H 
ATOM     22  C   LIG d   1      -6.246  -2.175  -1.139  0.00  0.00     0.067 A 
ATOM     23  H   LIG d   1      -5.541  -2.698  -3.050  0.00  0.00     0.087 H 
ATOM     24  H   LIG d   1      -6.599  -1.549   0.829  0.00  0.00     0.089 H 
ATOM     25  H   LIG d   1      -1.968  -1.951   1.118  0.00  0.00     0.094 H 
BRANCH  12  26
ATOM     26  C   LIG d   1      -2.654   1.377   0.869  0.00  0.00    -0.041 A 
ATOM     27  C   LIG d   1      -3.616   1.540  -0.111  0.00  0.00    -0.073 A 
ATOM     28  C   LIG d   1      -3.720   2.742  -0.784  0.00  0.00    -0.051 A 
ATOM     29  H   LIG d   1      -4.256   0.764  -0.340  0.00  0.00     0.084 H 
ATOM     30  C   LIG d   1      -2.860   3.786  -0.475  0.00  0.00     0.065 A 
ATOM     31  H   LIG d   1      -4.437   2.863  -1.516  0.00  0.00     0.087 H 
ATOM     32  C   LIG d   1      -1.896   3.619   0.509  0.00  0.00    -0.051 A 
ATOM     33  C   LIG d   1      -1.799   2.417   1.182  0.00  0.00    -0.073 A 
ATOM     34  H   LIG d   1      -1.252   4.392   0.738  0.00  0.00     0.087 H 
ATOM     35  H   LIG d   1      -1.087   2.295   1.919  0.00  0.00     0.084 H 
BRANCH  30  36
ATOM     36  O   LIG d   1      -2.961   4.969  -1.136  0.00  0.00    -0.361 OA
ATOM     37  H   LIG d   1      -3.612   5.080  -1.800  0.00  0.00     0.217 HD
ENDBRANCH  30  36
ENDBRANCH  12  26
BRANCH  22  38
ATOM     38  O   LIG d   1      -7.523  -2.585  -1.364  0.00  0.00    -0.361 OA
ATOM     39  H   LIG d   1      -7.759  -2.947  -2.195  0.00  0.00     0.217 HD
ENDBRANCH  22  38
ENDBRANCH   1  11
BRANCH   4  40
ATOM     40  O   LIG d   1       3.695   0.170   0.611  0.00  0.00    -0.350 OA
BRANCH  40  41
ATOM     41  C   LIG d   1       3.879   1.233  -0.326  0.00  0.00     0.049 C 
ATOM     42  H   LIG d   1       3.321   2.089  -0.009  0.00  0.00     0.077 H 
ATOM     43  H   LIG d   1       3.537   0.921  -1.291  0.00  0.00     0.077 H 
BRANCH  41  44
ATOM     44  C   LIG d   1       5.364   1.593  -0.404  0.00  0.00     0.103 C 
ATOM     45  H   LIG d   1       5.728   1.821   0.576  0.00  0.00     0.079 H 
ATOM     46  H   LIG d   1       5.492   2.445  -1.039  0.00  0.00     0.079 H 
BRANCH  44  47
ATOM     47  N   LIG d   1       6.115   0.456  -0.953  0.00  0.00    -0.068 N 
ATOM     48  C   LIG d   1       7.550   0.769  -0.776  0.00  0.00     0.087 C 
ATOM     49  C   LIG d   1       8.243  -0.529  -0.322  0.00  0.00    -0.030 C 
ATOM     50  H   LIG d   1       7.671   1.529  -0.033  0.00  0.00     0.076 H 
ATOM     51  H   LIG d   1       7.977   1.130  -1.688  0.00  0.00     0.076 H 
ATOM     52  C   LIG d   1       7.113  -1.579  -0.223  0.00  0.00    -0.030 C 
ATOM     53  H   LIG d   1       8.757  -0.405   0.608  0.00  0.00     0.042 H 
ATOM     54  C   LIG d   1       5.842  -0.704  -0.067  0.00  0.00     0.087 C 
ATOM     55  H   LIG d   1       7.076  -2.239  -1.064  0.00  0.00     0.042 H 
ATOM     56  H   LIG d   1       4.970  -1.234  -0.388  0.00  0.00     0.076 H 
ATOM     57  H   LIG d   1       5.651  -0.421   0.947  0.00  0.00     0.076 H 
ATOM     58  H   LIG d   1       5.870   0.274  -1.926  0.00  0.00     0.280 HD
BRANCH  49  59
ATOM     59  C   LIG d   1       9.284  -0.964  -1.356  0.00  0.00    -0.071 C 
ATOM     60  H   LIG d   1       8.809  -1.099  -2.305  0.00  0.00     0.028 H 
ATOM     61  H   LIG d   1       9.731  -1.885  -1.046  0.00  0.00     0.028 H 
ATOM     62  H   LIG d   1      10.040  -0.211  -1.440  0.00  0.00     0.028 H 
ENDBRANCH  49  59
BRANCH  52  63
ATOM     63  C   LIG d   1       7.305  -2.478   1.000  0.00  0.00    -0.071 C 
ATOM     64  H   LIG d   1       7.351  -1.875   1.883  0.00  0.00     0.028 H 
ATOM     65  H   LIG d   1       8.216  -3.030   0.898  0.00  0.00     0.028 H 
ATOM     66  H   LIG d   1       6.482  -3.158   1.075  0.00  0.00     0.028 H 
ENDBRANCH  52  63
ENDBRANCH  44  47
ENDBRANCH  41  44
ENDBRANCH  40  41
ENDBRANCH   4  40
TORSDOF 10
