@<TRIPOS>MOLECULE
AIJ
 63 67 0 0 0
SMALL
GASTEIGER

@<TRIPOS>ATOM
      1 C          -2.0800   -0.0320   -1.5700 C.3     1  LIG1        0.0760
      2 C          -1.7580    1.1620   -0.6560 C.3     1  LIG1        0.1412
      3 O          -2.3510    0.9450    0.6080 O.3     1  LIG1       -0.4817
      4 C          -3.7020    0.9710    0.5800 C.ar    1  LIG1        0.1350
      5 C          -4.3180    1.3950    1.7620 C.ar    1  LIG1       -0.0154
      6 C          -5.6900    1.4390    1.8730 C.ar    1  LIG1       -0.0167
      7 C          -6.4870    1.0580    0.8030 C.ar    1  LIG1        0.1181
      8 O          -7.8420    1.0880    0.9120 O.3     1  LIG1       -0.5067
      9 C          -5.8910    0.6470   -0.3750 C.ar    1  LIG1       -0.0032
     10 C          -4.5030    0.6160   -0.4940 C.ar    1  LIG1        0.0537
     11 S          -3.8240    0.1410   -2.0550 S.3     1  LIG1       -0.1094
     12 C          -1.8790   -1.3240   -0.8210 C.ar    1  LIG1       -0.0301
     13 C          -2.8350   -1.7560    0.0800 C.ar    1  LIG1       -0.0539
     14 C          -2.6520   -2.9390    0.7680 C.ar    1  LIG1       -0.0199
     15 C          -1.5080   -3.6950    0.5550 C.ar    1  LIG1        0.1169
     16 O          -1.3260   -4.8590    1.2310 O.3     1  LIG1       -0.5068
     17 C          -0.5500   -3.2590   -0.3490 C.ar    1  LIG1       -0.0199
     18 C          -0.7400   -2.0770   -1.0390 C.ar    1  LIG1       -0.0539
     19 C          -0.2650    1.2890   -0.4980 C.ar    1  LIG1       -0.0057
     20 C           0.4300    2.2260   -1.2400 C.ar    1  LIG1       -0.0516
     21 C           1.7990    2.3450   -1.0970 C.ar    1  LIG1       -0.0196
     22 C           2.4760    1.5220   -0.2080 C.ar    1  LIG1        0.1208
     23 C           1.7770    0.5780    0.5300 C.ar    1  LIG1       -0.0196
     24 C           0.4070    0.4680    0.3880 C.ar    1  LIG1       -0.0516
     25 O           3.8230    1.6360   -0.0660 O.3     1  LIG1       -0.4864
     26 C           4.2190    0.6670    0.9070 C.3     1  LIG1        0.1317
     27 C           5.7330    0.7440    1.1150 C.3     1  LIG1        0.0111
     28 C           6.1250    2.1750    1.4860 C.3     1  LIG1       -0.0184
     29 N           6.4180    0.3530   -0.1240 N.4     1  LIG1        0.2396
     30 C           7.8650    0.4480    0.1440 C.3     1  LIG1       -0.0314
     31 C           8.4450   -0.9780    0.0340 C.3     1  LIG1       -0.0077
     32 C           7.4000   -1.7130   -0.8470 C.3     1  LIG1       -0.0077
     33 C           6.0770   -1.0640   -0.3700 C.3     1  LIG1       -0.0314
     34 H          -1.4396   -0.0467   -2.4270 H       1  LIG1        0.0504
     35 H          -2.1432    2.0623   -1.0872 H       1  LIG1        0.0799
     36 H          -3.7347    1.6796    2.5643 H       1  LIG1        0.0656
     37 H          -6.1259    1.7558    2.7532 H       1  LIG1        0.0655
     38 H          -8.2416    1.3672    1.7122 H       1  LIG1        0.2921
     39 H          -6.4793    0.3607   -1.1731 H       1  LIG1        0.0666
     40 H          -3.6858   -1.1938    0.2383 H       1  LIG1        0.0622
     41 H          -3.3657   -3.2609    1.4404 H       1  LIG1        0.0654
     42 H          -1.9736   -5.1525    1.8413 H       1  LIG1        0.2921
     43 H           0.3038   -3.8171   -0.5059 H       1  LIG1        0.0654
     44 H          -0.0315   -1.7561   -1.7173 H       1  LIG1        0.0622
     45 H          -0.0743    2.8371   -1.9013 H       1  LIG1        0.0623
     46 H           2.3174    3.0449   -1.6505 H       1  LIG1        0.0654
     47 H           2.2798   -0.0416    1.1845 H       1  LIG1        0.0654
     48 H          -0.1148   -0.2276    0.9438 H       1  LIG1        0.0623
     49 H           3.9552   -0.3116    0.5640 H       1  LIG1        0.0754
     50 H           3.7207    0.8662    1.8327 H       1  LIG1        0.0754
     51 H           6.0188    0.0807    1.9045 H       1  LIG1        0.0882
     52 H           5.8395    2.8390    0.6970 H       1  LIG1        0.0285
     53 H           7.1837    2.2284    1.6316 H       1  LIG1        0.0285
     54 H           5.6260    2.4588    2.3890 H       1  LIG1        0.0285
     55 H           6.1548    0.9347   -0.9195 H       1  LIG1        0.2037
     56 H           8.0309    0.8362    1.1272 H       1  LIG1        0.0814
     57 H           8.3381    1.1051   -0.5555 H       1  LIG1        0.0814
     58 H           8.5256   -1.4358    0.9978 H       1  LIG1        0.0319
     59 H           9.4330   -1.0008   -0.3762 H       1  LIG1        0.0319
     60 H           7.4063   -2.7670   -0.6626 H       1  LIG1        0.0319
     61 H           7.5755   -1.6203   -1.8984 H       1  LIG1        0.0319
     62 H           5.3238   -1.1446   -1.1257 H       1  LIG1        0.0814
     63 H           5.6847   -1.5422    0.5031 H       1  LIG1        0.0814
@<TRIPOS>BOND
     1     1     2    1
     2     1    11    1
     3     1    12    1
     4     2     3    1
     5     2    19    1
     6     3     4    1
     7     4     5   ar
     8     4    10   ar
     9     5     6   ar
    10     6     7   ar
    11     7     8    1
    12     7     9   ar
    13     9    10   ar
    14    10    11    1
    15    12    13   ar
    16    12    18   ar
    17    13    14   ar
    18    14    15   ar
    19    15    16    1
    20    15    17   ar
    21    17    18   ar
    22    19    20   ar
    23    19    24   ar
    24    20    21   ar
    25    21    22   ar
    26    22    23   ar
    27    22    25    1
    28    23    24   ar
    29    25    26    1
    30    26    27    1
    31    27    28    1
    32    27    29    1
    33    29    30    1
    34    29    33    1
    35    30    31    1
    36    31    32    1
    37    32    33    1
    38     1    34    1
    39     2    35    1
    40     5    36    1
    41     6    37    1
    42     8    38    1
    43     9    39    1
    44    13    40    1
    45    14    41    1
    46    16    42    1
    47    17    43    1
    48    18    44    1
    49    20    45    1
    50    21    46    1
    51    23    47    1
    52    24    48    1
    53    26    49    1
    54    26    50    1
    55    27    51    1
    56    28    52    1
    57    28    53    1
    58    28    54    1
    59    29    55    1
    60    30    56    1
    61    30    57    1
    62    31    58    1
    63    31    59    1
    64    32    60    1
    65    32    61    1
    66    33    62    1
    67    33    63    1
