REMARK  9 active torsions:
REMARK  status: ('A' for Active; 'I' for Inactive)
REMARK    1  A    between atoms: C_1  and  C_12 
REMARK    2  A    between atoms: C_2  and  C_19 
REMARK    3  A    between atoms: C_7  and  O_8 
REMARK    4  A    between atoms: C_15  and  O_16 
REMARK    5  A    between atoms: C_22  and  O_25 
REMARK    6  A    between atoms: O_25  and  C_26 
REMARK    7  A    between atoms: C_26  and  C_27 
REMARK    8  A    between atoms: C_27  and  C_28 
REMARK    9  A    between atoms: C_27  and  N_29 
ROOT
ATOM      1  C   LIG d   1      -0.265   1.289  -0.498  0.00  0.00    -0.027 A 
ATOM      2  C   LIG d   1       0.430   2.226  -1.240  0.00  0.00    -0.072 A 
ATOM      3  C   LIG d   1       1.799   2.345  -1.097  0.00  0.00    -0.050 A 
ATOM      4  C   LIG d   1       2.476   1.522  -0.208  0.00  0.00     0.068 A 
ATOM      5  C   LIG d   1       1.777   0.578   0.530  0.00  0.00    -0.050 A 
ATOM      6  C   LIG d   1       0.407   0.468   0.388  0.00  0.00    -0.072 A 
ATOM      7  H   LIG d   1      -0.074   2.837  -1.901  0.00  0.00     0.084 H 
ATOM      8  H   LIG d   1       2.317   3.045  -1.651  0.00  0.00     0.087 H 
ATOM      9  H   LIG d   1       2.280  -0.042   1.185  0.00  0.00     0.087 H 
ATOM     10  H   LIG d   1      -0.115  -0.228   0.944  0.00  0.00     0.084 H 
ENDROOT
BRANCH   1  11
ATOM     11  C   LIG d   1      -1.758   1.162  -0.656  0.00  0.00     0.086 C 
ATOM     12  C   LIG d   1      -2.080  -0.032  -1.570  0.00  0.00     0.050 C 
ATOM     13  S   LIG d   1      -3.824   0.141  -2.055  0.00  0.00    -0.114 SA
ATOM     14  H   LIG d   1      -1.440  -0.047  -2.427  0.00  0.00     0.069 H 
ATOM     15  C   LIG d   1      -4.503   0.616  -0.494  0.00  0.00     0.037 A 
ATOM     16  C   LIG d   1      -3.702   0.971   0.580  0.00  0.00     0.086 A 
ATOM     17  C   LIG d   1      -5.891   0.647  -0.375  0.00  0.00    -0.032 A 
ATOM     18  O   LIG d   1      -2.351   0.945   0.608  0.00  0.00    -0.338 OA
ATOM     19  C   LIG d   1      -4.318   1.395   1.762  0.00  0.00    -0.047 A 
ATOM     20  C   LIG d   1      -5.690   1.439   1.873  0.00  0.00    -0.048 A 
ATOM     21  H   LIG d   1      -3.735   1.680   2.564  0.00  0.00     0.087 H 
ATOM     22  C   LIG d   1      -6.487   1.058   0.803  0.00  0.00     0.067 A 
ATOM     23  H   LIG d   1      -6.126   1.756   2.753  0.00  0.00     0.087 H 
ATOM     24  H   LIG d   1      -6.479   0.361  -1.173  0.00  0.00     0.089 H 
ATOM     25  H   LIG d   1      -2.143   2.062  -1.087  0.00  0.00     0.094 H 
BRANCH  12  26
ATOM     26  C   LIG d   1      -1.879  -1.324  -0.821  0.00  0.00    -0.041 A 
ATOM     27  C   LIG d   1      -2.835  -1.756   0.080  0.00  0.00    -0.073 A 
ATOM     28  C   LIG d   1      -2.652  -2.939   0.768  0.00  0.00    -0.051 A 
ATOM     29  H   LIG d   1      -3.686  -1.194   0.238  0.00  0.00     0.084 H 
ATOM     30  C   LIG d   1      -1.508  -3.695   0.555  0.00  0.00     0.065 A 
ATOM     31  H   LIG d   1      -3.366  -3.261   1.440  0.00  0.00     0.087 H 
ATOM     32  C   LIG d   1      -0.550  -3.259  -0.349  0.00  0.00    -0.051 A 
ATOM     33  C   LIG d   1      -0.740  -2.077  -1.039  0.00  0.00    -0.073 A 
ATOM     34  H   LIG d   1       0.304  -3.817  -0.506  0.00  0.00     0.087 H 
ATOM     35  H   LIG d   1      -0.032  -1.756  -1.717  0.00  0.00     0.084 H 
BRANCH  30  36
ATOM     36  O   LIG d   1      -1.326  -4.859   1.231  0.00  0.00    -0.361 OA
ATOM     37  H   LIG d   1      -1.974  -5.152   1.841  0.00  0.00     0.217 HD
ENDBRANCH  30  36
ENDBRANCH  12  26
BRANCH  22  38
ATOM     38  O   LIG d   1      -7.842   1.088   0.912  0.00  0.00    -0.361 OA
ATOM     39  H   LIG d   1      -8.242   1.367   1.712  0.00  0.00     0.217 HD
ENDBRANCH  22  38
ENDBRANCH   1  11
BRANCH   4  40
ATOM     40  O   LIG d   1       3.823   1.636  -0.066  0.00  0.00    -0.349 OA
BRANCH  40  41
ATOM     41  C   LIG d   1       4.219   0.667   0.907  0.00  0.00     0.052 C 
ATOM     42  H   LIG d   1       3.955  -0.312   0.564  0.00  0.00     0.078 H 
ATOM     43  H   LIG d   1       3.721   0.866   1.833  0.00  0.00     0.078 H 
BRANCH  41  44
ATOM     44  C   LIG d   1       5.733   0.744   1.115  0.00  0.00     0.121 C 
ATOM     45  H   LIG d   1       6.019   0.081   1.905  0.00  0.00     0.087 H 
BRANCH  44  46
ATOM     46  C   LIG d   1       6.125   2.175   1.486  0.00  0.00    -0.047 C 
ATOM     47  H   LIG d   1       5.840   2.839   0.697  0.00  0.00     0.030 H 
ATOM     48  H   LIG d   1       7.184   2.228   1.632  0.00  0.00     0.030 H 
ATOM     49  H   LIG d   1       5.626   2.459   2.389  0.00  0.00     0.030 H 
ENDBRANCH  44  46
BRANCH  44  50
ATOM     50  N   LIG d   1       6.418   0.353  -0.124  0.00  0.00    -0.065 N 
ATOM     51  C   LIG d   1       7.865   0.448   0.144  0.00  0.00     0.084 C 
ATOM     52  C   LIG d   1       8.445  -0.978   0.034  0.00  0.00    -0.041 C 
ATOM     53  H   LIG d   1       8.031   0.836   1.127  0.00  0.00     0.076 H 
ATOM     54  H   LIG d   1       8.338   1.105  -0.555  0.00  0.00     0.076 H 
ATOM     55  C   LIG d   1       7.400  -1.713  -0.847  0.00  0.00    -0.041 C 
ATOM     56  H   LIG d   1       8.526  -1.436   0.998  0.00  0.00     0.035 H 
ATOM     57  H   LIG d   1       9.433  -1.001  -0.376  0.00  0.00     0.035 H 
ATOM     58  C   LIG d   1       6.077  -1.064  -0.370  0.00  0.00     0.084 C 
ATOM     59  H   LIG d   1       7.406  -2.767  -0.663  0.00  0.00     0.035 H 
ATOM     60  H   LIG d   1       7.575  -1.620  -1.898  0.00  0.00     0.035 H 
ATOM     61  H   LIG d   1       5.324  -1.145  -1.126  0.00  0.00     0.076 H 
ATOM     62  H   LIG d   1       5.685  -1.542   0.503  0.00  0.00     0.076 H 
ATOM     63  H   LIG d   1       6.155   0.935  -0.919  0.00  0.00     0.280 HD
ENDBRANCH  44  50
ENDBRANCH  41  44
ENDBRANCH  40  41
ENDBRANCH   4  40
TORSDOF 9
