REMARK  9 active torsions:
REMARK  status: ('A' for Active; 'I' for Inactive)
REMARK    1  A    between atoms: C_1  and  C_12 
REMARK    2  A    between atoms: C_2  and  C_19 
REMARK    3  A    between atoms: C_7  and  O_8 
REMARK    4  A    between atoms: C_15  and  O_16 
REMARK    5  A    between atoms: C_22  and  O_25 
REMARK    6  A    between atoms: O_25  and  C_26 
REMARK    7  A    between atoms: C_26  and  C_27 
REMARK    8  A    between atoms: C_27  and  C_28 
REMARK    9  A    between atoms: C_27  and  N_29 
ROOT
ATOM      1  C   LIG d   1       0.179   0.817   0.992  0.00  0.00    -0.027 A 
ATOM      2  C   LIG d   1      -0.535   1.514   1.950  0.00  0.00    -0.072 A 
ATOM      3  C   LIG d   1      -1.910   1.402   2.004  0.00  0.00    -0.050 A 
ATOM      4  C   LIG d   1      -2.576   0.589   1.098  0.00  0.00     0.068 A 
ATOM      5  C   LIG d   1      -1.856  -0.113   0.142  0.00  0.00    -0.050 A 
ATOM      6  C   LIG d   1      -0.481   0.007   0.087  0.00  0.00    -0.072 A 
ATOM      7  H   LIG d   1      -0.040   2.118   2.625  0.00  0.00     0.084 H 
ATOM      8  H   LIG d   1      -2.442   1.923   2.718  0.00  0.00     0.087 H 
ATOM      9  H   LIG d   1      -2.348  -0.725  -0.528  0.00  0.00     0.087 H 
ATOM     10  H   LIG d   1       0.054  -0.508  -0.630  0.00  0.00     0.084 H 
ENDROOT
BRANCH   1  11
ATOM     11  C   LIG d   1       1.680   0.941   0.935  0.00  0.00     0.086 C 
ATOM     12  C   LIG d   1       2.325  -0.281   1.611  0.00  0.00     0.050 C 
ATOM     13  S   LIG d   1       4.071   0.140   1.886  0.00  0.00    -0.114 SA
ATOM     14  H   LIG d   1       1.835  -0.518   2.532  0.00  0.00     0.069 H 
ATOM     15  C   LIG d   1       4.419   0.920   0.340  0.00  0.00     0.037 A 
ATOM     16  C   LIG d   1       3.417   1.258  -0.556  0.00  0.00     0.086 A 
ATOM     17  C   LIG d   1       5.749   1.215   0.048  0.00  0.00    -0.032 A 
ATOM     18  O   LIG d   1       2.100   0.994  -0.413  0.00  0.00    -0.338 OA
ATOM     19  C   LIG d   1       3.770   1.930  -1.731  0.00  0.00    -0.047 A 
ATOM     20  C   LIG d   1       5.083   2.233  -2.011  0.00  0.00    -0.048 A 
ATOM     21  H   LIG d   1       3.033   2.203  -2.400  0.00  0.00     0.087 H 
ATOM     22  C   LIG d   1       6.085   1.870  -1.123  0.00  0.00     0.067 A 
ATOM     23  H   LIG d   1       5.322   2.731  -2.883  0.00  0.00     0.087 H 
ATOM     24  H   LIG d   1       6.491   0.942   0.712  0.00  0.00     0.089 H 
ATOM     25  H   LIG d   1       1.978   1.835   1.443  0.00  0.00     0.094 H 
BRANCH  12  26
ATOM     26  C   LIG d   1       2.219  -1.484   0.708  0.00  0.00    -0.041 A 
ATOM     27  C   LIG d   1       3.077  -1.616  -0.368  0.00  0.00    -0.073 A 
ATOM     28  C   LIG d   1       2.982  -2.718  -1.196  0.00  0.00    -0.051 A 
ATOM     29  H   LIG d   1       3.788  -0.891  -0.553  0.00  0.00     0.084 H 
ATOM     30  C   LIG d   1       2.025  -3.691  -0.948  0.00  0.00     0.065 A 
ATOM     31  H   LIG d   1       3.623  -2.817  -1.999  0.00  0.00     0.087 H 
ATOM     32  C   LIG d   1       1.166  -3.555   0.133  0.00  0.00    -0.051 A 
ATOM     33  C   LIG d   1       1.268  -2.455   0.962  0.00  0.00    -0.073 A 
ATOM     34  H   LIG d   1       0.451  -4.276   0.318  0.00  0.00     0.087 H 
ATOM     35  H   LIG d   1       0.634  -2.358   1.771  0.00  0.00     0.084 H 
BRANCH  30  36
ATOM     36  O   LIG d   1       1.930  -4.775  -1.761  0.00  0.00    -0.361 OA
ATOM     37  H   LIG d   1       2.511  -4.866  -2.491  0.00  0.00     0.217 HD
ENDBRANCH  30  36
ENDBRANCH  12  26
BRANCH  22  38
ATOM     38  O   LIG d   1       7.385   2.156  -1.400  0.00  0.00    -0.361 OA
ATOM     39  H   LIG d   1       7.608   2.600  -2.195  0.00  0.00     0.217 HD
ENDBRANCH  22  38
ENDBRANCH   1  11
BRANCH   4  40
ATOM     40  O   LIG d   1      -3.929   0.477   1.149  0.00  0.00    -0.349 OA
BRANCH  40  41
ATOM     41  C   LIG d   1      -4.310  -0.417   0.102  0.00  0.00     0.052 C 
ATOM     42  H   LIG d   1      -3.844  -1.367   0.258  0.00  0.00     0.078 H 
ATOM     43  H   LIG d   1      -3.998  -0.017  -0.840  0.00  0.00     0.078 H 
BRANCH  41  44
ATOM     44  C   LIG d   1      -5.830  -0.588   0.105  0.00  0.00     0.121 C 
ATOM     45  H   LIG d   1      -6.108  -1.324  -0.621  0.00  0.00     0.087 H 
BRANCH  44  46
ATOM     46  C   LIG d   1      -6.290  -1.042   1.492  0.00  0.00    -0.047 C 
ATOM     47  H   LIG d   1      -6.013  -0.307   2.218  0.00  0.00     0.030 H 
ATOM     48  H   LIG d   1      -5.826  -1.975   1.734  0.00  0.00     0.030 H 
ATOM     49  H   LIG d   1      -7.353  -1.161   1.494  0.00  0.00     0.030 H 
ENDBRANCH  44  46
BRANCH  44  50
ATOM     50  N   LIG d   1      -6.467   0.693  -0.228  0.00  0.00    -0.065 N 
ATOM     51  C   LIG d   1      -6.073   1.017  -1.611  0.00  0.00     0.084 C 
ATOM     52  C   LIG d   1      -7.357   1.007  -2.467  0.00  0.00    -0.041 C 
ATOM     53  H   LIG d   1      -5.383   0.285  -1.976  0.00  0.00     0.076 H 
ATOM     54  H   LIG d   1      -5.595   1.973  -1.655  0.00  0.00     0.076 H 
ATOM     55  C   LIG d   1      -8.477   1.239  -1.419  0.00  0.00    -0.041 C 
ATOM     56  H   LIG d   1      -7.482   0.067  -2.962  0.00  0.00     0.035 H 
ATOM     57  H   LIG d   1      -7.350   1.740  -3.246  0.00  0.00     0.035 H 
ATOM     58  C   LIG d   1      -7.927   0.462  -0.196  0.00  0.00     0.084 C 
ATOM     59  H   LIG d   1      -9.411   0.835  -1.750  0.00  0.00     0.035 H 
ATOM     60  H   LIG d   1      -8.682   2.271  -1.222  0.00  0.00     0.035 H 
ATOM     61  H   LIG d   1      -8.349   0.840   0.712  0.00  0.00     0.076 H 
ATOM     62  H   LIG d   1      -8.172  -0.579  -0.235  0.00  0.00     0.076 H 
ATOM     63  H   LIG d   1      -6.202   1.442   0.411  0.00  0.00     0.280 HD
ENDBRANCH  44  50
ENDBRANCH  41  44
ENDBRANCH  40  41
ENDBRANCH   4  40
TORSDOF 9
