@<TRIPOS>MOLECULE
AIT
 63 67 0 0 0
SMALL
GASTEIGER

@<TRIPOS>ATOM
      1 C           2.3250   -0.2810    1.6110 C.3     1  LIG1        0.0760
      2 C           1.6800    0.9410    0.9350 C.3     1  LIG1        0.1412
      3 O           2.1000    0.9940   -0.4130 O.3     1  LIG1       -0.4817
      4 C           3.4170    1.2580   -0.5560 C.ar    1  LIG1        0.1350
      5 C           3.7700    1.9300   -1.7310 C.ar    1  LIG1       -0.0154
      6 C           5.0830    2.2330   -2.0110 C.ar    1  LIG1       -0.0167
      7 C           6.0850    1.8700   -1.1230 C.ar    1  LIG1        0.1181
      8 O           7.3850    2.1560   -1.4000 O.3     1  LIG1       -0.5067
      9 C           5.7490    1.2150    0.0480 C.ar    1  LIG1       -0.0032
     10 C           4.4190    0.9200    0.3400 C.ar    1  LIG1        0.0537
     11 S           4.0710    0.1400    1.8860 S.3     1  LIG1       -0.1094
     12 C           2.2190   -1.4840    0.7080 C.ar    1  LIG1       -0.0301
     13 C           3.0770   -1.6160   -0.3680 C.ar    1  LIG1       -0.0539
     14 C           2.9820   -2.7180   -1.1960 C.ar    1  LIG1       -0.0199
     15 C           2.0250   -3.6910   -0.9480 C.ar    1  LIG1        0.1169
     16 O           1.9300   -4.7750   -1.7610 O.3     1  LIG1       -0.5068
     17 C           1.1660   -3.5550    0.1330 C.ar    1  LIG1       -0.0199
     18 C           1.2680   -2.4550    0.9620 C.ar    1  LIG1       -0.0539
     19 C           0.1790    0.8170    0.9920 C.ar    1  LIG1       -0.0057
     20 C          -0.5350    1.5140    1.9500 C.ar    1  LIG1       -0.0516
     21 C          -1.9100    1.4020    2.0040 C.ar    1  LIG1       -0.0196
     22 C          -2.5760    0.5890    1.0980 C.ar    1  LIG1        0.1208
     23 C          -1.8560   -0.1130    0.1420 C.ar    1  LIG1       -0.0196
     24 C          -0.4810    0.0070    0.0870 C.ar    1  LIG1       -0.0516
     25 O          -3.9290    0.4770    1.1490 O.3     1  LIG1       -0.4864
     26 C          -4.3100   -0.4170    0.1020 C.3     1  LIG1        0.1317
     27 C          -5.8300   -0.5880    0.1050 C.3     1  LIG1        0.0111
     28 C          -6.2900   -1.0420    1.4920 C.3     1  LIG1       -0.0184
     29 N          -6.4670    0.6930   -0.2280 N.4     1  LIG1        0.2396
     30 C          -6.0730    1.0170   -1.6110 C.3     1  LIG1       -0.0314
     31 C          -7.3570    1.0070   -2.4670 C.3     1  LIG1       -0.0077
     32 C          -8.4770    1.2390   -1.4190 C.3     1  LIG1       -0.0077
     33 C          -7.9270    0.4620   -0.1960 C.3     1  LIG1       -0.0314
     34 H           1.8354   -0.5182    2.5324 H       1  LIG1        0.0504
     35 H           1.9775    1.8346    1.4427 H       1  LIG1        0.0799
     36 H           3.0329    2.2034   -2.3996 H       1  LIG1        0.0656
     37 H           5.3224    2.7309   -2.8827 H       1  LIG1        0.0655
     38 H           7.6080    2.5999   -2.1945 H       1  LIG1        0.2921
     39 H           6.4906    0.9422    0.7118 H       1  LIG1        0.0666
     40 H           3.7883   -0.8915   -0.5527 H       1  LIG1        0.0622
     41 H           3.6229   -2.8172   -1.9988 H       1  LIG1        0.0654
     42 H           2.5107   -4.8657   -2.4907 H       1  LIG1        0.2921
     43 H           0.4508   -4.2757    0.3177 H       1  LIG1        0.0654
     44 H           0.6345   -2.3578    1.7709 H       1  LIG1        0.0622
     45 H          -0.0397    2.1179    2.6246 H       1  LIG1        0.0623
     46 H          -2.4425    1.9230    2.7182 H       1  LIG1        0.0654
     47 H          -2.3478   -0.7248   -0.5280 H       1  LIG1        0.0654
     48 H           0.0536   -0.5081   -0.6298 H       1  LIG1        0.0623
     49 H          -3.8439   -1.3675    0.2575 H       1  LIG1        0.0754
     50 H          -3.9982   -0.0165   -0.8399 H       1  LIG1        0.0754
     51 H          -6.1078   -1.3237   -0.6206 H       1  LIG1        0.0882
     52 H          -6.0126   -0.3067    2.2182 H       1  LIG1        0.0285
     53 H          -5.8258   -1.9752    1.7340 H       1  LIG1        0.0285
     54 H          -7.3533   -1.1615    1.4937 H       1  LIG1        0.0285
     55 H          -6.2015    1.4422    0.4112 H       1  LIG1        0.2037
     56 H          -5.3833    0.2851   -1.9765 H       1  LIG1        0.0814
     57 H          -5.5952    1.9734   -1.6551 H       1  LIG1        0.0814
     58 H          -7.4821    0.0665   -2.9617 H       1  LIG1        0.0319
     59 H          -7.3501    1.7404   -3.2461 H       1  LIG1        0.0319
     60 H          -9.4109    0.8352   -1.7501 H       1  LIG1        0.0319
     61 H          -8.6817    2.2707   -1.2225 H       1  LIG1        0.0319
     62 H          -8.3488    0.8402    0.7117 H       1  LIG1        0.0814
     63 H          -8.1724   -0.5787   -0.2347 H       1  LIG1        0.0814
@<TRIPOS>BOND
     1     1     2    1
     2     1    11    1
     3     1    12    1
     4     2     3    1
     5     2    19    1
     6     3     4    1
     7     4     5   ar
     8     4    10   ar
     9     5     6   ar
    10     6     7   ar
    11     7     8    1
    12     7     9   ar
    13     9    10   ar
    14    10    11    1
    15    12    13   ar
    16    12    18   ar
    17    13    14   ar
    18    14    15   ar
    19    15    16    1
    20    15    17   ar
    21    17    18   ar
    22    19    20   ar
    23    19    24   ar
    24    20    21   ar
    25    21    22   ar
    26    22    23   ar
    27    22    25    1
    28    23    24   ar
    29    25    26    1
    30    26    27    1
    31    27    28    1
    32    27    29    1
    33    29    30    1
    34    29    33    1
    35    30    31    1
    36    31    32    1
    37    32    33    1
    38     1    34    1
    39     2    35    1
    40     5    36    1
    41     6    37    1
    42     8    38    1
    43     9    39    1
    44    13    40    1
    45    14    41    1
    46    16    42    1
    47    17    43    1
    48    18    44    1
    49    20    45    1
    50    21    46    1
    51    23    47    1
    52    24    48    1
    53    26    49    1
    54    26    50    1
    55    27    51    1
    56    28    52    1
    57    28    53    1
    58    28    54    1
    59    29    55    1
    60    30    56    1
    61    30    57    1
    62    31    58    1
    63    31    59    1
    64    32    60    1
    65    32    61    1
    66    33    62    1
    67    33    63    1
