@<TRIPOS>MOLECULE
AIU
 66 70 0 0 0
SMALL
GASTEIGER

@<TRIPOS>ATOM
      1 C          -2.8020   -0.3330   -1.6030 C.3     1  LIG1        0.0760
      2 C          -2.0660    0.8840   -1.0160 C.3     1  LIG1        0.1412
      3 O          -2.3980    1.0040    0.3520 O.3     1  LIG1       -0.4817
      4 C          -3.6910    1.3310    0.5650 C.ar    1  LIG1        0.1350
      5 C          -3.9420    2.0600    1.7320 C.ar    1  LIG1       -0.0154
      6 C          -5.2210    2.4300    2.0790 C.ar    1  LIG1       -0.0167
      7 C          -6.2910    2.0790    1.2690 C.ar    1  LIG1        0.1181
      8 O          -7.5580    2.4320    1.6140 O.3     1  LIG1       -0.5067
      9 C          -6.0570    1.3680    0.1060 C.ar    1  LIG1       -0.0032
     10 C          -4.7610    1.0050   -0.2540 C.ar    1  LIG1        0.0537
     11 S          -4.5430    0.1540   -1.7870 S.3     1  LIG1       -0.1094
     12 C          -2.6900   -1.5050   -0.6630 C.ar    1  LIG1       -0.0301
     13 C          -3.4890   -1.5650    0.4640 C.ar    1  LIG1       -0.0539
     14 C          -3.3880   -2.6380    1.3280 C.ar    1  LIG1       -0.0199
     15 C          -2.4840   -3.6570    1.0640 C.ar    1  LIG1        0.1169
     16 O          -2.3830   -4.7140    1.9120 O.3     1  LIG1       -0.5068
     17 C          -1.6830   -3.5950   -0.0670 C.ar    1  LIG1       -0.0199
     18 C          -1.7910   -2.5220   -0.9310 C.ar    1  LIG1       -0.0539
     19 C          -0.5780    0.6920   -1.1600 C.ar    1  LIG1       -0.0057
     20 C           0.1030    1.3210   -2.1860 C.ar    1  LIG1       -0.0516
     21 C           1.4670    1.1470   -2.3200 C.ar    1  LIG1       -0.0196
     22 C           2.1530    0.3400   -1.4250 C.ar    1  LIG1        0.1208
     23 C           1.4670   -0.2950   -0.4000 C.ar    1  LIG1       -0.0196
     24 C           0.1040   -0.1130   -0.2660 C.ar    1  LIG1       -0.0516
     25 O           3.4950    0.1670   -1.5550 O.3     1  LIG1       -0.4867
     26 C           3.9030   -0.7040   -0.4980 C.3     1  LIG1        0.1291
     27 C           5.4120   -0.9420   -0.5870 C.3     1  LIG1        0.0031
     28 N           6.1210    0.3220   -0.3450 N.4     1  LIG1        0.2380
     29 C           7.5370    0.0840   -0.6820 C.3     1  LIG1       -0.0287
     30 C           8.3490    0.2420    0.6200 C.3     1  LIG1        0.0038
     31 C           9.6730    0.9590    0.3490 C.3     1  LIG1       -0.0572
     32 C           7.4260    1.1140    1.5110 C.3     1  LIG1        0.0038
     33 C           7.6930    0.8670    2.9970 C.3     1  LIG1       -0.0572
     34 C           6.0220    0.5940    1.1050 C.3     1  LIG1       -0.0287
     35 H          -2.3809   -0.6250   -2.5423 H       1  LIG1        0.0504
     36 H          -2.3575    1.7709   -1.5388 H       1  LIG1        0.0799
     37 H          -3.1541    2.3250    2.3435 H       1  LIG1        0.0656
     38 H          -5.3845    2.9696    2.9434 H       1  LIG1        0.0655
     39 H          -7.7118    2.9137    2.4029 H       1  LIG1        0.2921
     40 H          -6.8493    1.1041   -0.5004 H       1  LIG1        0.0666
     41 H          -4.1616   -0.8072    0.6598 H       1  LIG1        0.0622
     42 H          -3.9844   -2.6817    2.1691 H       1  LIG1        0.0654
     43 H          -2.9243   -4.7553    2.6757 H       1  LIG1        0.2921
     44 H          -1.0069   -4.3497   -0.2629 H       1  LIG1        0.0654
     45 H          -1.2008   -2.4792   -1.7765 H       1  LIG1        0.0622
     46 H          -0.4081    1.9210   -2.8522 H       1  LIG1        0.0623
     47 H           1.9749    1.6172   -3.0855 H       1  LIG1        0.0654
     48 H           1.9744   -0.9029    0.2619 H       1  LIG1        0.0654
     49 H          -0.4054   -0.5780    0.5016 H       1  LIG1        0.0623
     50 H           3.3887   -1.6381   -0.5870 H       1  LIG1        0.0751
     51 H           3.6676   -0.2556    0.4446 H       1  LIG1        0.0751
     52 H           5.6586   -1.3086   -1.5615 H       1  LIG1        0.0848
     53 H           5.7041   -1.6619    0.1487 H       1  LIG1        0.0848
     54 H           5.7411    1.0970   -0.8885 H       1  LIG1        0.2035
     55 H           7.8660    0.7979   -1.4080 H       1  LIG1        0.0817
     56 H           7.6696   -0.8938   -1.0958 H       1  LIG1        0.0817
     57 H           8.6070   -0.6937    1.0703 H       1  LIG1        0.0354
     58 H           9.4782    1.9083   -0.1046 H       1  LIG1        0.0234
     59 H          10.2719    0.3652   -0.3095 H       1  LIG1        0.0234
     60 H          10.1949    1.1049    1.2716 H       1  LIG1        0.0234
     61 H           7.5608    2.1669    1.3765 H       1  LIG1        0.0354
     62 H           7.5765   -0.1747    3.2120 H       1  LIG1        0.0234
     63 H           6.9984    1.4320    3.5829 H       1  LIG1        0.0234
     64 H           8.6908    1.1710    3.2354 H       1  LIG1        0.0234
     65 H           5.7829   -0.3011    1.6403 H       1  LIG1        0.0817
     66 H           5.2505    1.3003    1.3303 H       1  LIG1        0.0817
@<TRIPOS>BOND
     1     1     2    1
     2     1    11    1
     3     1    12    1
     4     2     3    1
     5     2    19    1
     6     3     4    1
     7     4     5   ar
     8     4    10   ar
     9     5     6   ar
    10     6     7   ar
    11     7     8    1
    12     7     9   ar
    13     9    10   ar
    14    10    11    1
    15    12    13   ar
    16    12    18   ar
    17    13    14   ar
    18    14    15   ar
    19    15    16    1
    20    15    17   ar
    21    17    18   ar
    22    19    20   ar
    23    19    24   ar
    24    20    21   ar
    25    21    22   ar
    26    22    23   ar
    27    22    25    1
    28    23    24   ar
    29    25    26    1
    30    26    27    1
    31    27    28    1
    32    28    29    1
    33    28    34    1
    34    29    30    1
    35    30    31    1
    36    30    32    1
    37    32    33    1
    38    32    34    1
    39     1    35    1
    40     2    36    1
    41     5    37    1
    42     6    38    1
    43     8    39    1
    44     9    40    1
    45    13    41    1
    46    14    42    1
    47    16    43    1
    48    17    44    1
    49    18    45    1
    50    20    46    1
    51    21    47    1
    52    23    48    1
    53    24    49    1
    54    26    50    1
    55    26    51    1
    56    27    52    1
    57    27    53    1
    58    28    54    1
    59    29    55    1
    60    29    56    1
    61    30    57    1
    62    31    58    1
    63    31    59    1
    64    31    60    1
    65    32    61    1
    66    33    62    1
    67    33    63    1
    68    33    64    1
    69    34    65    1
    70    34    66    1
