86287635
  -OEChem-01261718373D

 57 60  0     1  0  0  0  0  0999 V2000
    2.0667    4.7181    0.5333 F   0  0  0  0  0  0  0  0  0  0  0  0
   -0.8552    0.6999   -3.0299 F   0  0  0  0  0  0  0  0  0  0  0  0
   -0.3071   -0.0567    1.6249 F   0  0  0  0  0  0  0  0  0  0  0  0
   -7.0454   -2.1553    1.7629 O   0  0  0  0  0  0  0  0  0  0  0  0
   -7.5141   -1.0866   -0.1972 O   0  0  0  0  0  0  0  0  0  0  0  0
    1.3421    1.8049    0.0152 N   0  0  2  0  0  0  0  0  0  0  0  0
    1.5944   -1.8358   -0.9730 N   0  0  0  0  0  0  0  0  0  0  0  0
    2.8045    1.9174    0.2712 C   0  0  1  0  0  0  0  0  0  0  0  0
    0.9423    0.6359   -0.8307 C   0  0  1  0  0  0  0  0  0  0  0  0
    3.3284    0.6599    1.0223 C   0  0  0  0  0  0  0  0  0  0  0  0
    1.7684   -0.5724   -0.4791 C   0  0  0  0  0  0  0  0  0  0  0  0
    2.8647   -0.5842    0.3546 C   0  0  0  0  0  0  0  0  0  0  0  0
    0.7785    3.0614   -0.4858 C   0  0  0  0  0  0  0  0  0  0  0  0
    3.3612   -1.9142    0.4012 C   0  0  0  0  0  0  0  0  0  0  0  0
   -0.5463    0.3295   -0.7052 C   0  0  0  0  0  0  0  0  0  0  0  0
    0.7966    4.2025    0.5410 C   0  0  0  0  0  0  0  0  0  0  0  0
    3.6534    2.2014   -0.9802 C   0  0  0  0  0  0  0  0  0  0  0  0
    2.5452   -2.6796   -0.4390 C   0  0  0  0  0  0  0  0  0  0  0  0
    4.4270   -2.5479    1.0709 C   0  0  0  0  0  0  0  0  0  0  0  0
    0.5252    3.7125    1.9611 C   0  0  0  0  0  0  0  0  0  0  0  0
   -0.1465    5.3446    0.1719 C   0  0  0  0  0  0  0  0  0  0  0  0
   -1.3663    0.3813   -1.8323 C   0  0  0  0  0  0  0  0  0  0  0  0
   -1.0877   -0.0033    0.5365 C   0  0  0  0  0  0  0  0  0  0  0  0
    2.7449   -4.0503   -0.6387 C   0  0  0  0  0  0  0  0  0  0  0  0
    4.6364   -3.9183    0.8802 C   0  0  0  0  0  0  0  0  0  0  0  0
    3.8070   -4.6562    0.0383 C   0  0  0  0  0  0  0  0  0  0  0  0
   -2.7278    0.1002   -1.7180 C   0  0  0  0  0  0  0  0  0  0  0  0
   -2.4491   -0.2845    0.6509 C   0  0  0  0  0  0  0  0  0  0  0  0
   -3.2692   -0.2328   -0.4763 C   0  0  0  0  0  0  0  0  0  0  0  0
   -4.6886   -0.5259   -0.3581 C   0  0  0  0  0  0  0  0  0  0  0  0
   -5.2632   -1.2130    0.6541 C   0  0  0  0  0  0  0  0  0  0  0  0
   -6.7203   -1.4528    0.6527 C   0  0  0  0  0  0  0  0  0  0  0  0
    3.0023    2.7410    0.9641 H   0  0  0  0  0  0  0  0  0  0  0  0
    1.1786    0.8757   -1.8770 H   0  0  0  0  0  0  0  0  0  0  0  0
    2.9419    0.6658    2.0498 H   0  0  0  0  0  0  0  0  0  0  0  0
    4.4224    0.6787    1.0862 H   0  0  0  0  0  0  0  0  0  0  0  0
   -0.2776    2.9025   -0.7340 H   0  0  0  0  0  0  0  0  0  0  0  0
    1.2554    3.3799   -1.4195 H   0  0  0  0  0  0  0  0  0  0  0  0
    4.7179    2.2196   -0.7198 H   0  0  0  0  0  0  0  0  0  0  0  0
    3.4212    3.1784   -1.4141 H   0  0  0  0  0  0  0  0  0  0  0  0
    3.5218    1.4434   -1.7582 H   0  0  0  0  0  0  0  0  0  0  0  0
    0.8729   -2.1158   -1.6232 H   0  0  0  0  0  0  0  0  0  0  0  0
    5.0824   -1.9859    1.7302 H   0  0  0  0  0  0  0  0  0  0  0  0
    0.0875    5.7248   -0.8282 H   0  0  0  0  0  0  0  0  0  0  0  0
   -1.1928    5.0235    0.1861 H   0  0  0  0  0  0  0  0  0  0  0  0
   -0.0286    6.1845    0.8648 H   0  0  0  0  0  0  0  0  0  0  0  0
    1.3027    3.0473    2.3448 H   0  0  0  0  0  0  0  0  0  0  0  0
   -0.4407    3.2006    2.0281 H   0  0  0  0  0  0  0  0  0  0  0  0
    0.5023    4.5622    2.6535 H   0  0  0  0  0  0  0  0  0  0  0  0
    2.1010   -4.6260   -1.2952 H   0  0  0  0  0  0  0  0  0  0  0  0
    5.4565   -4.4114    1.3953 H   0  0  0  0  0  0  0  0  0  0  0  0
    3.9882   -5.7196   -0.0957 H   0  0  0  0  0  0  0  0  0  0  0  0
   -3.3504    0.1446   -2.6082 H   0  0  0  0  0  0  0  0  0  0  0  0
   -2.8290   -0.5206    1.6404 H   0  0  0  0  0  0  0  0  0  0  0  0
   -5.3108   -0.1587   -1.1718 H   0  0  0  0  0  0  0  0  0  0  0  0
   -4.6974   -1.6267    1.4811 H   0  0  0  0  0  0  0  0  0  0  0  0
   -8.0074   -2.3420    1.8110 H   0  0  0  0  0  0  0  0  0  0  0  0
  1 16  1  0  0  0  0
  2 22  1  0  0  0  0
  3 23  1  0  0  0  0
  4 32  1  0  0  0  0
  4 57  1  0  0  0  0
  5 32  2  0  0  0  0
  6  8  1  0  0  0  0
  6  9  1  0  0  0  0
  6 13  1  0  0  0  0
  7 11  1  0  0  0  0
  7 18  1  0  0  0  0
  7 42  1  0  0  0  0
  8 10  1  0  0  0  0
  8 17  1  0  0  0  0
  8 33  1  0  0  0  0
  9 11  1  0  0  0  0
  9 15  1  0  0  0  0
  9 34  1  0  0  0  0
 10 12  1  0  0  0  0
 10 35  1  0  0  0  0
 10 36  1  0  0  0  0
 11 12  2  0  0  0  0
 12 14  1  0  0  0  0
 13 16  1  0  0  0  0
 13 37  1  0  0  0  0
 13 38  1  0  0  0  0
 14 18  1  0  0  0  0
 14 19  2  0  0  0  0
 15 22  2  0  0  0  0
 15 23  1  0  0  0  0
 16 20  1  0  0  0  0
 16 21  1  0  0  0  0
 17 39  1  0  0  0  0
 17 40  1  0  0  0  0
 17 41  1  0  0  0  0
 18 24  2  0  0  0  0
 19 25  1  0  0  0  0
 19 43  1  0  0  0  0
 20 47  1  0  0  0  0
 20 48  1  0  0  0  0
 20 49  1  0  0  0  0
 21 44  1  0  0  0  0
 21 45  1  0  0  0  0
 21 46  1  0  0  0  0
 22 27  1  0  0  0  0
 23 28  2  0  0  0  0
 24 26  1  0  0  0  0
 24 50  1  0  0  0  0
 25 26  2  0  0  0  0
 25 51  1  0  0  0  0
 26 52  1  0  0  0  0
 27 29  2  0  0  0  0
 27 53  1  0  0  0  0
 28 29  1  0  0  0  0
 28 54  1  0  0  0  0
 29 30  1  0  0  0  0
 30 31  2  0  0  0  0
 30 55  1  0  0  0  0
 31 32  1  0  0  0  0
 31 56  1  0  0  0  0
M  END
> <PUBCHEM_COMPOUND_CID>
86287635

> <PUBCHEM_CONFORMER_RMSD>
0.8

> <PUBCHEM_CONFORMER_DIVERSEORDER>
1
7
9
2
5
10
4
8
3
6

> <PUBCHEM_MMFF94_PARTIAL_CHARGES>
38
1 -0.34
10 0.18
11 -0.33
12 -0.18
13 0.27
15 -0.14
16 0.34
18 -0.15
19 -0.15
2 -0.19
22 0.19
23 0.19
24 -0.15
25 -0.15
26 -0.15
27 -0.15
28 -0.15
29 0.03
3 -0.19
30 -0.18
31 -0.14
32 0.71
4 -0.65
42 0.27
43 0.15
5 -0.57
50 0.15
51 0.15
52 0.15
53 0.15
54 0.15
55 0.15
56 0.15
57 0.5
6 -0.81
7 0.03
8 0.27
9 0.59

> <PUBCHEM_EFFECTIVE_ROTOR_COUNT>
5.8

> <PUBCHEM_PHARMACOPHORE_FEATURES>
11
1 4 acceptor
1 5 acceptor
1 6 cation
1 7 cation
1 7 donor
3 16 20 21 hydrophobe
3 4 5 32 anion
5 7 11 12 14 18 rings
6 14 18 19 24 25 26 rings
6 15 22 23 27 28 29 rings
6 6 8 9 10 11 12 rings

> <PUBCHEM_HEAVY_ATOM_COUNT>
32

> <PUBCHEM_ATOM_DEF_STEREO_COUNT>
2

> <PUBCHEM_ATOM_UDEF_STEREO_COUNT>
0

> <PUBCHEM_BOND_DEF_STEREO_COUNT>
1

> <PUBCHEM_BOND_UDEF_STEREO_COUNT>
0

> <PUBCHEM_ISOTOPIC_ATOM_COUNT>
0

> <PUBCHEM_COMPONENT_COUNT>
1

> <PUBCHEM_CACTVS_TAUTO_COUNT>
118

> <PUBCHEM_CONFORMER_ID>
0524A51300000001

> <PUBCHEM_MMFF94_ENERGY>
78.4195

> <PUBCHEM_FEATURE_SELFOVERLAP>
56.049

> <PUBCHEM_SHAPE_FINGERPRINT>
10074138 170 17329690038892607594
10165383 225 17972887131308521516
10190108 129 18342741832228620152
10411042 1 18339079259689977890
11014199 57 18122346779207849842
11582403 64 15806842558663116132
11763715 3 18122372123408989285
12107183 9 18125450718119165129
12293681 4 18050840023215913701
12342043 65 18040719178155032079
12623949 98 18334586762896206143
13140716 1 17908132527618997588
13533116 47 18409169943954096411
13782708 43 18040153998981975299
13785724 45 18199481969387957855
13911987 19 18118141358154996836
13955234 65 18267869561178962425
14004853 49 17254022130095926635
14400156 188 18337963392753119794
14866123 147 17474383574131733723
19319366 153 17913207843502483897
20505436 4 17629765827267023564
21049683 271 18261401069980395116
21344244 78 18130499777944274801
21814621 53 18187093875879648337
22033318 11 17913805793750660185
23559900 14 18265334087518285147
23845131 108 17762332917788411201
244849 19 18116971400167475525
2747138 104 18268418046226778906
3178227 256 18265615570921997632
3380486 145 17982974987188987868
4144715 1 18334018290147085361
46194498 28 17821727251720602374
484985 159 17469037761519656074
5309563 4 18266739082421094930
57527306 92 17345487053272896040
57527585 103 17685468985085573308
57816373 69 18343024368004666007
613672 6 18122320416393431030
6679774 75 17899118684946428704
6695519 79 17547878685724530155
6697151 62 18194094397135266031
70251023 43 18264209123608754474
86090 222 17676214584878163547
9777508 108 17259341601246543720

> <PUBCHEM_SHAPE_MULTIPOLES>
615.02
11.7
6.54
1.59
24.21
5.78
0.46
-16.98
-3.96
-7.06
-1.79
0.79
0.29
0.7

> <PUBCHEM_SHAPE_SELFOVERLAP>
1343.349

> <PUBCHEM_SHAPE_VOLUME>
336.3

> <PUBCHEM_COORDINATE_TYPE>
2
5
10

$$$$
