REMARK  7 active torsions:
REMARK  status: ('A' for Active; 'I' for Inactive)
REMARK    1  A    between atoms: C_1  and  C_17 
REMARK    2  A    between atoms: C_2  and  C_11 
REMARK    3  A    between atoms: C_7  and  O_27 
REMARK    4  A    between atoms: C_20  and  O_28 
REMARK    5  A    between atoms: C_23  and  C_24 
REMARK    6  A    between atoms: C_23  and  O_28 
REMARK    7  A    between atoms: C_24  and  N_29 
ROOT
ATOM      1  C   LIG d   1       2.587   4.390   0.190  0.00  0.00     0.005 C 
ATOM      2  C   LIG d   1       3.986   4.587  -0.474  0.00  0.00    -0.017 C 
ATOM      3  C   LIG d   1       4.290   3.464  -1.479  0.00  0.00    -0.053 C 
ATOM      4  C   LIG d   1       3.252   3.450  -2.600  0.00  0.00    -0.040 C 
ATOM      5  C   LIG d   1       1.828   3.581  -2.124  0.00  0.00    -0.048 A 
ATOM      6  C   LIG d   1       0.793   3.279  -3.023  0.00  0.00    -0.044 A 
ATOM      7  C   LIG d   1      -0.543   3.431  -2.652  0.00  0.00     0.066 A 
ATOM      8  C   LIG d   1      -0.861   3.898  -1.382  0.00  0.00    -0.050 A 
ATOM      9  C   LIG d   1       0.156   4.211  -0.482  0.00  0.00    -0.073 A 
ATOM     10  C   LIG d   1       1.509   4.058  -0.838  0.00  0.00    -0.043 A 
ATOM     11  H   LIG d   1       2.343   5.340   0.618  0.00  0.00     0.056 H 
ATOM     12  H   LIG d   1       3.945   5.488  -1.049  0.00  0.00     0.049 H 
ATOM     13  H   LIG d   1       4.271   2.523  -0.971  0.00  0.00     0.034 H 
ATOM     14  H   LIG d   1       5.256   3.635  -1.906  0.00  0.00     0.034 H 
ATOM     15  H   LIG d   1       3.345   2.526  -3.132  0.00  0.00     0.040 H 
ATOM     16  H   LIG d   1       3.451   4.303  -3.214  0.00  0.00     0.040 H 
ATOM     17  H   LIG d   1       1.023   2.940  -3.970  0.00  0.00     0.088 H 
ATOM     18  H   LIG d   1      -1.849   4.013  -1.106  0.00  0.00     0.087 H 
ATOM     19  H   LIG d   1      -0.086   4.560   0.459  0.00  0.00     0.084 H 
ENDROOT
BRANCH   1  20
ATOM     20  C   LIG d   1       2.583   3.416   1.369  0.00  0.00    -0.049 A 
ATOM     21  C   LIG d   1       2.902   3.878   2.639  0.00  0.00    -0.073 A 
ATOM     22  C   LIG d   1       2.899   2.990   3.715  0.00  0.00    -0.050 A 
ATOM     23  H   LIG d   1       3.140   4.872   2.786  0.00  0.00     0.084 H 
ATOM     24  C   LIG d   1       2.578   1.648   3.511  0.00  0.00     0.068 A 
ATOM     25  H   LIG d   1       3.134   3.326   4.662  0.00  0.00     0.087 H 
ATOM     26  C   LIG d   1       2.260   1.194   2.231  0.00  0.00    -0.050 A 
ATOM     27  C   LIG d   1       2.263   2.082   1.155  0.00  0.00    -0.073 A 
ATOM     28  H   LIG d   1       2.022   0.201   2.080  0.00  0.00     0.087 H 
ATOM     29  H   LIG d   1       2.029   1.750   0.206  0.00  0.00     0.084 H 
BRANCH  24  30
ATOM     30  O   LIG d   1       2.578   0.782   4.561  0.00  0.00    -0.350 OA
BRANCH  30  31
ATOM     31  C   LIG d   1       3.482   1.056   5.630  0.00  0.00     0.049 C 
ATOM     32  H   LIG d   1       4.344   1.562   5.248  0.00  0.00     0.077 H 
ATOM     33  H   LIG d   1       2.999   1.675   6.357  0.00  0.00     0.077 H 
BRANCH  31  34
ATOM     34  C   LIG d   1       3.907  -0.249   6.278  0.00  0.00     0.103 C 
ATOM     35  H   LIG d   1       4.367  -0.878   5.544  0.00  0.00     0.079 H 
ATOM     36  H   LIG d   1       3.047  -0.741   6.684  0.00  0.00     0.079 H 
BRANCH  34  37
ATOM     37  N   LIG d   1       4.865   0.025   7.355  0.00  0.00    -0.069 N 
ATOM     38  C   LIG d   1       5.320  -1.220   7.975  0.00  0.00     0.084 C 
ATOM     39  C   LIG d   1       5.902  -0.746   9.299  0.00  0.00    -0.041 C 
ATOM     40  H   LIG d   1       4.503  -1.893   8.132  0.00  0.00     0.076 H 
ATOM     41  H   LIG d   1       6.021  -1.760   7.374  0.00  0.00     0.076 H 
ATOM     42  C   LIG d   1       5.181   0.563   9.605  0.00  0.00    -0.041 C 
ATOM     43  H   LIG d   1       6.956  -0.582   9.209  0.00  0.00     0.035 H 
ATOM     44  H   LIG d   1       5.768  -1.468  10.077  0.00  0.00     0.035 H 
ATOM     45  C   LIG d   1       4.228   0.776   8.438  0.00  0.00     0.084 C 
ATOM     46  H   LIG d   1       5.880   1.370   9.670  0.00  0.00     0.035 H 
ATOM     47  H   LIG d   1       4.665   0.526  10.541  0.00  0.00     0.035 H 
ATOM     48  H   LIG d   1       3.256   0.385   8.658  0.00  0.00     0.076 H 
ATOM     49  H   LIG d   1       4.072   1.808   8.202  0.00  0.00     0.076 H 
ATOM     50  H   LIG d   1       5.634   0.544   6.930  0.00  0.00     0.280 HD
ENDBRANCH  34  37
ENDBRANCH  31  34
ENDBRANCH  30  31
ENDBRANCH  24  30
ENDBRANCH   1  20
BRANCH   2  51
ATOM     51  C   LIG d   1       5.096   4.862   0.530  0.00  0.00    -0.053 A 
ATOM     52  C   LIG d   1       5.939   3.828   0.931  0.00  0.00    -0.076 A 
ATOM     53  C   LIG d   1       6.956   4.080   1.851  0.00  0.00    -0.082 A 
ATOM     54  H   LIG d   1       5.811   2.878   0.548  0.00  0.00     0.084 H 
ATOM     55  C   LIG d   1       7.128   5.364   2.368  0.00  0.00    -0.083 A 
ATOM     56  H   LIG d   1       7.582   3.316   2.150  0.00  0.00     0.083 H 
ATOM     57  C   LIG d   1       6.281   6.397   1.964  0.00  0.00    -0.082 A 
ATOM     58  H   LIG d   1       7.881   5.550   3.049  0.00  0.00     0.083 H 
ATOM     59  C   LIG d   1       5.264   6.145   1.043  0.00  0.00    -0.076 A 
ATOM     60  H   LIG d   1       6.407   7.347   2.346  0.00  0.00     0.083 H 
ATOM     61  H   LIG d   1       4.638   6.908   0.743  0.00  0.00     0.084 H 
ENDBRANCH   2  51
BRANCH   7  62
ATOM     62  O   LIG d   1      -1.533   3.129  -3.536  0.00  0.00    -0.361 OA
ATOM     63  H   LIG d   1      -1.317   2.814  -4.392  0.00  0.00     0.217 HD
ENDBRANCH   7  62
TORSDOF 7
