@<TRIPOS>MOLECULE
C3D
 63 67 0 0 0
SMALL
GASTEIGER

@<TRIPOS>ATOM
      1 C           2.5870    4.3900    0.1900 C.3     1  LIG1        0.0163
      2 C           3.9860    4.5870   -0.4740 C.3     1  LIG1       -0.0047
      3 C           4.2900    3.4640   -1.4790 C.3     1  LIG1       -0.0413
      4 C           3.2520    3.4500   -2.6000 C.3     1  LIG1       -0.0267
      5 C           1.8280    3.5810   -2.1240 C.ar    1  LIG1       -0.0401
      6 C           0.7930    3.2790   -3.0230 C.ar    1  LIG1       -0.0167
      7 C          -0.5430    3.4310   -2.6520 C.ar    1  LIG1        0.1171
      8 C          -0.8610    3.8980   -1.3820 C.ar    1  LIG1       -0.0199
      9 C           0.1560    4.2110   -0.4820 C.ar    1  LIG1       -0.0543
     10 C           1.5090    4.0580   -0.8380 C.ar    1  LIG1       -0.0360
     11 C           5.0960    4.8620    0.5300 C.ar    1  LIG1       -0.0434
     12 C           5.2640    6.1450    1.0430 C.ar    1  LIG1       -0.0583
     13 C           6.2810    6.3970    1.9640 C.ar    1  LIG1       -0.0615
     14 C           7.1280    5.3640    2.3680 C.ar    1  LIG1       -0.0617
     15 C           6.9560    4.0800    1.8510 C.ar    1  LIG1       -0.0615
     16 C           5.9390    3.8280    0.9310 C.ar    1  LIG1       -0.0583
     17 C           2.5830    3.4160    1.3690 C.ar    1  LIG1       -0.0392
     18 C           2.9020    3.8780    2.6390 C.ar    1  LIG1       -0.0545
     19 C           2.8990    2.9900    3.7150 C.ar    1  LIG1       -0.0197
     20 C           2.5780    1.6480    3.5110 C.ar    1  LIG1        0.1208
     21 C           2.2600    1.1940    2.2310 C.ar    1  LIG1       -0.0197
     22 C           2.2630    2.0820    1.1550 C.ar    1  LIG1       -0.0545
     23 C           3.4820    1.0560    5.6300 C.3     1  LIG1        0.1291
     24 C           3.9070   -0.2490    6.2780 C.3     1  LIG1        0.0031
     25 C           5.3200   -1.2200    7.9750 C.3     1  LIG1       -0.0316
     26 C           5.9020   -0.7460    9.2990 C.3     1  LIG1       -0.0077
     27 O          -1.5330    3.1290   -3.5360 O.3     1  LIG1       -0.5068
     28 O           2.5780    0.7820    4.5610 O.3     1  LIG1       -0.4867
     29 N           4.8650    0.0250    7.3550 N.4     1  LIG1        0.2376
     30 C           5.1810    0.5630    9.6050 C.3     1  LIG1       -0.0077
     31 C           4.2280    0.7760    8.4380 C.3     1  LIG1       -0.0316
     32 H           2.3428    5.3399    0.6178 H       1  LIG1        0.0403
     33 H           3.9447    5.4883   -1.0492 H       1  LIG1        0.0358
     34 H           4.2713    2.5226   -0.9707 H       1  LIG1        0.0274
     35 H           5.2562    3.6352   -1.9057 H       1  LIG1        0.0274
     36 H           3.3446    2.5261   -3.1317 H       1  LIG1        0.0313
     37 H           3.4509    4.3032   -3.2144 H       1  LIG1        0.0313
     38 H           1.0234    2.9403   -3.9702 H       1  LIG1        0.0657
     39 H          -1.8487    4.0128   -1.1060 H       1  LIG1        0.0654
     40 H          -0.0864    4.5598    0.4585 H       1  LIG1        0.0622
     41 H           4.6376    6.9081    0.7427 H       1  LIG1        0.0620
     42 H           6.4070    7.3472    2.3465 H       1  LIG1        0.0618
     43 H           7.8810    5.5500    3.0487 H       1  LIG1        0.0618
     44 H           7.5820    3.3158    2.1497 H       1  LIG1        0.0618
     45 H           5.8112    2.8782    0.5482 H       1  LIG1        0.0620
     46 H           3.1397    4.8715    2.7859 H       1  LIG1        0.0622
     47 H           3.1343    3.3260    4.6620 H       1  LIG1        0.0654
     48 H           2.0225    0.2011    2.0799 H       1  LIG1        0.0654
     49 H           2.0290    1.7496    0.2064 H       1  LIG1        0.0622
     50 H           4.3438    1.5621    5.2478 H       1  LIG1        0.0751
     51 H           2.9989    1.6751    6.3567 H       1  LIG1        0.0751
     52 H           4.3665   -0.8778    5.5442 H       1  LIG1        0.0848
     53 H           3.0475   -0.7406    6.6836 H       1  LIG1        0.0848
     54 H           4.5031   -1.8930    8.1322 H       1  LIG1        0.0814
     55 H           6.0212   -1.7604    7.3739 H       1  LIG1        0.0814
     56 H           6.9556   -0.5822    9.2089 H       1  LIG1        0.0319
     57 H           5.7682   -1.4684   10.0769 H       1  LIG1        0.0319
     58 H          -1.3170    2.8143   -4.3917 H       1  LIG1        0.2921
     59 H           5.6337    0.5437    6.9302 H       1  LIG1        0.2034
     60 H           5.8804    1.3702    9.6704 H       1  LIG1        0.0319
     61 H           4.6645    0.5256   10.5413 H       1  LIG1        0.0319
     62 H           3.2565    0.3852    8.6580 H       1  LIG1        0.0814
     63 H           4.0724    1.8080    8.2022 H       1  LIG1        0.0814
@<TRIPOS>BOND
     1     1    17    1
     2     1    10    1
     3     1     2    1
     4     2     3    1
     5     2    11    1
     6     3     4    1
     7     4     5    1
     8     5     6   ar
     9     5    10   ar
    10     6     7   ar
    11     7    27    1
    12     7     8   ar
    13     8     9   ar
    14     9    10   ar
    15    11    16   ar
    16    11    12   ar
    17    12    13   ar
    18    13    14   ar
    19    14    15   ar
    20    15    16   ar
    21    17    18   ar
    22    17    22   ar
    23    18    19   ar
    24    19    20   ar
    25    20    28    1
    26    20    21   ar
    27    21    22   ar
    28    23    24    1
    29    23    28    1
    30    24    29    1
    31    25    26    1
    32    25    29    1
    33    26    30    1
    34    29    31    1
    35    30    31    1
    36     1    32    1
    37     2    33    1
    38     3    34    1
    39     3    35    1
    40     4    36    1
    41     4    37    1
    42     6    38    1
    43     8    39    1
    44     9    40    1
    45    12    41    1
    46    13    42    1
    47    14    43    1
    48    15    44    1
    49    16    45    1
    50    18    46    1
    51    19    47    1
    52    21    48    1
    53    22    49    1
    54    23    50    1
    55    23    51    1
    56    24    52    1
    57    24    53    1
    58    25    54    1
    59    25    55    1
    60    26    56    1
    61    26    57    1
    62    27    58    1
    63    29    59    1
    64    30    60    1
    65    30    61    1
    66    31    62    1
    67    31    63    1
