REMARK  9 active torsions:
REMARK  status: ('A' for Active; 'I' for Inactive)
REMARK    1  A    between atoms: C_1  and  C_14 
REMARK    2  A    between atoms: C_2  and  C_21 
REMARK    3  A    between atoms: C_7  and  O_8 
REMARK    4  A    between atoms: C_12  and  C_13 
REMARK    5  A    between atoms: C_17  and  O_18 
REMARK    6  A    between atoms: C_24  and  O_27 
REMARK    7  A    between atoms: O_27  and  C_28 
REMARK    8  A    between atoms: C_28  and  C_29 
REMARK    9  A    between atoms: C_29  and  N_30 
ROOT
ATOM      1  C   LIG d   1       0.125  -1.444   2.263  0.00  0.00     0.008 C 
ATOM      2  C   LIG d   1      -0.960  -0.691   1.484  0.00  0.00     0.078 C 
ATOM      3  O   LIG d   1      -0.937   0.676   1.864  0.00  0.00    -0.340 OA
ATOM      4  C   LIG d   1      -1.170   0.806   3.193  0.00  0.00     0.079 A 
ATOM      5  C   LIG d   1      -1.710   2.019   3.623  0.00  0.00    -0.047 A 
ATOM      6  C   LIG d   1      -1.967   2.241   4.959  0.00  0.00    -0.045 A 
ATOM      7  C   LIG d   1      -1.689   1.252   5.891  0.00  0.00     0.104 A 
ATOM      8  C   LIG d   1      -1.158   0.043   5.468  0.00  0.00     0.158 A 
ATOM      9  F   LIG d   1      -0.889  -0.923   6.372  0.00  0.00    -0.203 F 
ATOM     10  C   LIG d   1      -0.902  -0.179   4.123  0.00  0.00     0.021 A 
ATOM     11  C   LIG d   1      -0.335  -1.520   3.723  0.00  0.00    -0.016 C 
ATOM     12  H   LIG d   1       0.272  -2.424   1.859  0.00  0.00     0.052 H 
ATOM     13  H   LIG d   1      -1.919  -1.112   1.703  0.00  0.00     0.092 H 
ATOM     14  H   LIG d   1      -1.919   2.758   2.933  0.00  0.00     0.087 H 
ATOM     15  H   LIG d   1      -2.366   3.142   5.266  0.00  0.00     0.088 H 
ATOM     16  H   LIG d   1       0.493  -1.769   4.354  0.00  0.00     0.048 H 
ENDROOT
BRANCH   2  17
ATOM     17  C   LIG d   1      -0.693  -0.807   0.005  0.00  0.00    -0.028 A 
ATOM     18  C   LIG d   1       0.087   0.139  -0.631  0.00  0.00    -0.072 A 
ATOM     19  C   LIG d   1       0.338   0.031  -1.985  0.00  0.00    -0.050 A 
ATOM     20  H   LIG d   1       0.482   0.927  -0.094  0.00  0.00     0.084 H 
ATOM     21  C   LIG d   1      -0.202  -1.022  -2.708  0.00  0.00     0.068 A 
ATOM     22  H   LIG d   1       0.927   0.734  -2.458  0.00  0.00     0.087 H 
ATOM     23  C   LIG d   1      -0.989  -1.968  -2.067  0.00  0.00    -0.050 A 
ATOM     24  C   LIG d   1      -1.233  -1.858  -0.712  0.00  0.00    -0.072 A 
ATOM     25  H   LIG d   1      -1.392  -2.753  -2.602  0.00  0.00     0.087 H 
ATOM     26  H   LIG d   1      -1.819  -2.561  -0.235  0.00  0.00     0.084 H 
BRANCH  21  27
ATOM     27  O   LIG d   1       0.038  -1.127  -4.041  0.00  0.00    -0.350 OA
BRANCH  27  28
ATOM     28  C   LIG d   1       0.868  -0.020  -4.400  0.00  0.00     0.049 C 
ATOM     29  H   LIG d   1       1.782  -0.064  -3.845  0.00  0.00     0.077 H 
ATOM     30  H   LIG d   1       0.359   0.894  -4.177  0.00  0.00     0.077 H 
BRANCH  28  31
ATOM     31  C   LIG d   1       1.178  -0.079  -5.897  0.00  0.00     0.103 C 
ATOM     32  H   LIG d   1       1.687  -0.993  -6.120  0.00  0.00     0.079 H 
ATOM     33  H   LIG d   1       1.799   0.750  -6.165  0.00  0.00     0.079 H 
BRANCH  31  34
ATOM     34  N   LIG d   1      -0.075  -0.018  -6.659  0.00  0.00    -0.069 N 
ATOM     35  C   LIG d   1      -0.654   1.306  -6.414  0.00  0.00     0.084 C 
ATOM     36  C   LIG d   1      -1.967   1.448  -7.186  0.00  0.00    -0.042 C 
ATOM     37  H   LIG d   1       0.033   2.060  -6.739  0.00  0.00     0.076 H 
ATOM     38  H   LIG d   1      -0.845   1.420  -5.367  0.00  0.00     0.076 H 
ATOM     39  C   LIG d   1      -1.687   1.316  -8.686  0.00  0.00    -0.062 C 
ATOM     40  H   LIG d   1      -2.398   2.407  -6.986  0.00  0.00     0.035 H 
ATOM     41  H   LIG d   1      -2.649   0.682  -6.879  0.00  0.00     0.035 H 
ATOM     42  C   LIG d   1      -0.970  -0.013  -8.942  0.00  0.00    -0.042 C 
ATOM     43  H   LIG d   1      -1.067   2.126  -9.008  0.00  0.00     0.033 H 
ATOM     44  H   LIG d   1      -2.608   1.342  -9.230  0.00  0.00     0.033 H 
ATOM     45  C   LIG d   1       0.291  -0.079  -8.078  0.00  0.00     0.084 C 
ATOM     46  H   LIG d   1      -0.700  -0.081  -9.975  0.00  0.00     0.035 H 
ATOM     47  H   LIG d   1      -1.620  -0.826  -8.693  0.00  0.00     0.035 H 
ATOM     48  H   LIG d   1       0.807  -0.996  -8.273  0.00  0.00     0.076 H 
ATOM     49  H   LIG d   1       0.925   0.749  -8.315  0.00  0.00     0.076 H 
ATOM     50  H   LIG d   1      -0.720  -0.765  -6.403  0.00  0.00     0.280 HD
ENDBRANCH  31  34
ENDBRANCH  28  31
ENDBRANCH  27  28
ENDBRANCH  21  27
ENDBRANCH   2  17
BRANCH   1  51
ATOM     51  C   LIG d   1       1.432  -0.698   2.175  0.00  0.00    -0.050 A 
ATOM     52  C   LIG d   1       1.680   0.359   3.030  0.00  0.00    -0.074 A 
ATOM     53  C   LIG d   1       2.879   1.042   2.956  0.00  0.00    -0.051 A 
ATOM     54  H   LIG d   1       0.969   0.638   3.724  0.00  0.00     0.084 H 
ATOM     55  C   LIG d   1       3.829   0.671   2.015  0.00  0.00     0.065 A 
ATOM     56  H   LIG d   1       3.068   1.827   3.599  0.00  0.00     0.087 H 
ATOM     57  C   LIG d   1       3.575  -0.386   1.155  0.00  0.00    -0.051 A 
ATOM     58  C   LIG d   1       2.377  -1.068   1.237  0.00  0.00    -0.074 A 
ATOM     59  H   LIG d   1       4.280  -0.663   0.454  0.00  0.00     0.087 H 
ATOM     60  H   LIG d   1       2.187  -1.855   0.597  0.00  0.00     0.084 H 
BRANCH  55  61
ATOM     61  O   LIG d   1       5.007   1.345   1.936  0.00  0.00    -0.361 OA
ATOM     62  H   LIG d   1       5.178   2.059   2.518  0.00  0.00     0.217 HD
ENDBRANCH  55  61
ENDBRANCH   1  51
BRANCH  11  63
ATOM     63  C   LIG d   1      -1.414  -2.596   3.865  0.00  0.00    -0.068 C 
ATOM     64  H   LIG d   1      -2.245  -2.353   3.236  0.00  0.00     0.028 H 
ATOM     65  H   LIG d   1      -1.739  -2.643   4.883  0.00  0.00     0.028 H 
ATOM     66  H   LIG d   1      -1.012  -3.544   3.575  0.00  0.00     0.028 H 
ENDBRANCH  11  63
BRANCH   7  67
ATOM     67  O   LIG d   1      -1.937   1.467   7.211  0.00  0.00    -0.358 OA
ATOM     68  H   LIG d   1      -2.296   2.285   7.493  0.00  0.00     0.217 HD
ENDBRANCH   7  67
TORSDOF 9
