@<TRIPOS>MOLECULE
CM3
 68 72 0 0 0
SMALL
GASTEIGER

@<TRIPOS>ATOM
      1 C           0.1250   -1.4440    2.2630 C.3     1  LIG1        0.0321
      2 C          -0.9600   -0.6910    1.4840 C.3     1  LIG1        0.1324
      3 O          -0.9370    0.6760    1.8640 O.3     1  LIG1       -0.4832
      4 C          -1.1700    0.8060    3.1930 C.ar    1  LIG1        0.1278
      5 C          -1.7100    2.0190    3.6230 C.ar    1  LIG1       -0.0160
      6 C          -1.9670    2.2410    4.9590 C.ar    1  LIG1       -0.0138
      7 C          -1.6890    1.2520    5.8910 C.ar    1  LIG1        0.1524
      8 O          -1.9370    1.4670    7.2110 O.3     1  LIG1       -0.5039
      9 C          -1.1580    0.0430    5.4680 C.ar    1  LIG1        0.1714
     10 F          -0.8890   -0.9230    6.3720 F       1  LIG1       -0.2012
     11 C          -0.9020   -0.1790    4.1230 C.ar    1  LIG1        0.0366
     12 C          -0.3350   -1.5200    3.7230 C.3     1  LIG1       -0.0019
     13 C          -1.4140   -2.5960    3.8650 C.3     1  LIG1       -0.0575
     14 C           1.4320   -0.6980    2.1750 C.ar    1  LIG1       -0.0396
     15 C           1.6800    0.3590    3.0300 C.ar    1  LIG1       -0.0547
     16 C           2.8790    1.0420    2.9560 C.ar    1  LIG1       -0.0199
     17 C           3.8290    0.6710    2.0150 C.ar    1  LIG1        0.1169
     18 O           5.0070    1.3450    1.9360 O.3     1  LIG1       -0.5068
     19 C           3.5750   -0.3860    1.1550 C.ar    1  LIG1       -0.0199
     20 C           2.3770   -1.0680    1.2370 C.ar    1  LIG1       -0.0547
     21 C          -0.6930   -0.8070    0.0050 C.ar    1  LIG1       -0.0065
     22 C           0.0870    0.1390   -0.6310 C.ar    1  LIG1       -0.0516
     23 C           0.3380    0.0310   -1.9850 C.ar    1  LIG1       -0.0196
     24 C          -0.2020   -1.0220   -2.7080 C.ar    1  LIG1        0.1208
     25 C          -0.9890   -1.9680   -2.0670 C.ar    1  LIG1       -0.0196
     26 C          -1.2330   -1.8580   -0.7120 C.ar    1  LIG1       -0.0516
     27 O           0.0380   -1.1270   -4.0410 O.3     1  LIG1       -0.4867
     28 C           0.8680   -0.0200   -4.4000 C.3     1  LIG1        0.1291
     29 C           1.1780   -0.0790   -5.8970 C.3     1  LIG1        0.0031
     30 N          -0.0750   -0.0180   -6.6590 N.4     1  LIG1        0.2376
     31 C          -0.6540    1.3060   -6.4140 C.3     1  LIG1       -0.0318
     32 C          -1.9670    1.4480   -7.1860 C.3     1  LIG1       -0.0123
     33 C          -1.6870    1.3160   -8.6860 C.3     1  LIG1       -0.0434
     34 C          -0.9700   -0.0130   -8.9420 C.3     1  LIG1       -0.0123
     35 C           0.2910   -0.0790   -8.0780 C.3     1  LIG1       -0.0318
     36 H           0.2723   -2.4238    1.8589 H       1  LIG1        0.0394
     37 H          -1.9192   -1.1118    1.7026 H       1  LIG1        0.0791
     38 H          -1.9191    2.7577    2.9333 H       1  LIG1        0.0655
     39 H          -2.3658    3.1421    5.2655 H       1  LIG1        0.0656
     40 H          -2.2959    2.2853    7.4931 H       1  LIG1        0.2923
     41 H           0.4926   -1.7688    4.3539 H       1  LIG1        0.0355
     42 H          -2.2450   -2.3530    3.2363 H       1  LIG1        0.0236
     43 H          -1.7390   -2.6430    4.8834 H       1  LIG1        0.0236
     44 H          -1.0124   -3.5443    3.5747 H       1  LIG1        0.0236
     45 H           0.9693    0.6384    3.7242 H       1  LIG1        0.0622
     46 H           3.0676    1.8266    3.5994 H       1  LIG1        0.0654
     47 H           5.1779    2.0594    2.5177 H       1  LIG1        0.2921
     48 H           4.2803   -0.6629    0.4543 H       1  LIG1        0.0654
     49 H           2.1872   -1.8550    0.5970 H       1  LIG1        0.0622
     50 H           0.4824    0.9268   -0.0944 H       1  LIG1        0.0623
     51 H           0.9272    0.7337   -2.4584 H       1  LIG1        0.0654
     52 H          -1.3917   -2.7531   -2.6022 H       1  LIG1        0.0654
     53 H          -1.8188   -2.5609   -0.2347 H       1  LIG1        0.0623
     54 H           1.7815   -0.0643   -3.8446 H       1  LIG1        0.0751
     55 H           0.3589    0.8944   -4.1771 H       1  LIG1        0.0751
     56 H           1.6869   -0.9934   -6.1201 H       1  LIG1        0.0848
     57 H           1.7993    0.7497   -6.1654 H       1  LIG1        0.0848
     58 H          -0.7202   -0.7653   -6.4028 H       1  LIG1        0.2034
     59 H           0.0325    2.0596   -6.7390 H       1  LIG1        0.0814
     60 H          -0.8453    1.4199   -5.3674 H       1  LIG1        0.0814
     61 H          -2.3980    2.4066   -6.9855 H       1  LIG1        0.0317
     62 H          -2.6487    0.6824   -6.8791 H       1  LIG1        0.0317
     63 H          -1.0671    2.1264   -9.0083 H       1  LIG1        0.0269
     64 H          -2.6079    1.3417   -9.2302 H       1  LIG1        0.0269
     65 H          -0.6999   -0.0807   -9.9751 H       1  LIG1        0.0317
     66 H          -1.6196   -0.8258   -8.6925 H       1  LIG1        0.0317
     67 H           0.8073   -0.9958   -8.2726 H       1  LIG1        0.0814
     68 H           0.9254    0.7494   -8.3151 H       1  LIG1        0.0814
@<TRIPOS>BOND
     1     1     2    1
     2     1    12    1
     3     1    14    1
     4     2     3    1
     5     2    21    1
     6     3     4    1
     7     4     5   ar
     8     4    11   ar
     9     5     6   ar
    10     6     7   ar
    11     7     8    1
    12     7     9   ar
    13     9    10    1
    14     9    11   ar
    15    11    12    1
    16    12    13    1
    17    14    15   ar
    18    14    20   ar
    19    15    16   ar
    20    16    17   ar
    21    17    18    1
    22    17    19   ar
    23    19    20   ar
    24    21    22   ar
    25    21    26   ar
    26    22    23   ar
    27    23    24   ar
    28    24    25   ar
    29    24    27    1
    30    25    26   ar
    31    27    28    1
    32    28    29    1
    33    29    30    1
    34    30    31    1
    35    30    35    1
    36    31    32    1
    37    32    33    1
    38    33    34    1
    39    34    35    1
    40     1    36    1
    41     2    37    1
    42     5    38    1
    43     6    39    1
    44     8    40    1
    45    12    41    1
    46    13    42    1
    47    13    43    1
    48    13    44    1
    49    15    45    1
    50    16    46    1
    51    18    47    1
    52    19    48    1
    53    20    49    1
    54    22    50    1
    55    23    51    1
    56    25    52    1
    57    26    53    1
    58    28    54    1
    59    28    55    1
    60    29    56    1
    61    29    57    1
    62    30    58    1
    63    31    59    1
    64    31    60    1
    65    32    61    1
    66    32    62    1
    67    33    63    1
    68    33    64    1
    69    34    65    1
    70    34    66    1
    71    35    67    1
    72    35    68    1
