REMARK  9 active torsions:
REMARK  status: ('A' for Active; 'I' for Inactive)
REMARK    1  A    between atoms: C_1  and  C_13 
REMARK    2  A    between atoms: C_2  and  C_20 
REMARK    3  A    between atoms: C_7  and  O_8 
REMARK    4  A    between atoms: C_11  and  C_12 
REMARK    5  A    between atoms: C_16  and  O_17 
REMARK    6  A    between atoms: C_23  and  O_26 
REMARK    7  A    between atoms: O_26  and  C_27 
REMARK    8  A    between atoms: C_27  and  C_28 
REMARK    9  A    between atoms: C_28  and  N_29 
ROOT
ATOM      1  C   LIG d   1       0.193   1.462   2.084  0.00  0.00     0.008 C 
ATOM      2  C   LIG d   1       1.138   0.445   1.430  0.00  0.00     0.078 C 
ATOM      3  O   LIG d   1       0.879  -0.840   1.972  0.00  0.00    -0.340 OA
ATOM      4  C   LIG d   1       1.080  -0.843   3.312  0.00  0.00     0.076 A 
ATOM      5  C   LIG d   1       1.401  -2.068   3.900  0.00  0.00    -0.048 A 
ATOM      6  C   LIG d   1       1.610  -2.162   5.259  0.00  0.00    -0.048 A 
ATOM      7  C   LIG d   1       1.501  -1.031   6.055  0.00  0.00     0.066 A 
ATOM      8  C   LIG d   1       1.188   0.185   5.476  0.00  0.00    -0.042 A 
ATOM      9  C   LIG d   1       0.980   0.280   4.109  0.00  0.00    -0.018 A 
ATOM     10  C   LIG d   1       0.654   1.639   3.535  0.00  0.00    -0.019 C 
ATOM     11  H   LIG d   1       0.216   2.395   1.561  0.00  0.00     0.052 H 
ATOM     12  H   LIG d   1       2.154   0.721   1.621  0.00  0.00     0.092 H 
ATOM     13  H   LIG d   1       1.483  -2.912   3.311  0.00  0.00     0.087 H 
ATOM     14  H   LIG d   1       1.847  -3.072   5.684  0.00  0.00     0.087 H 
ATOM     15  H   LIG d   1       1.109   1.028   6.066  0.00  0.00     0.088 H 
ATOM     16  H   LIG d   1      -0.121   2.102   4.109  0.00  0.00     0.048 H 
ENDROOT
BRANCH   2  17
ATOM     17  C   LIG d   1       0.902   0.421  -0.058  0.00  0.00    -0.028 A 
ATOM     18  C   LIG d   1      -0.025  -0.450  -0.596  0.00  0.00    -0.072 A 
ATOM     19  C   LIG d   1      -0.247  -0.470  -1.959  0.00  0.00    -0.050 A 
ATOM     20  H   LIG d   1      -0.553  -1.087   0.021  0.00  0.00     0.084 H 
ATOM     21  C   LIG d   1       0.468   0.379  -2.790  0.00  0.00     0.068 A 
ATOM     22  H   LIG d   1      -0.945  -1.117  -2.359  0.00  0.00     0.087 H 
ATOM     23  C   LIG d   1       1.403   1.249  -2.248  0.00  0.00    -0.050 A 
ATOM     24  C   LIG d   1       1.618   1.268  -0.884  0.00  0.00    -0.072 A 
ATOM     25  H   LIG d   1       1.938   1.882  -2.864  0.00  0.00     0.087 H 
ATOM     26  H   LIG d   1       2.314   1.915  -0.481  0.00  0.00     0.084 H 
BRANCH  21  27
ATOM     27  O   LIG d   1       0.255   0.358  -4.132  0.00  0.00    -0.350 OA
BRANCH  27  28
ATOM     28  C   LIG d   1      -0.749  -0.627  -4.375  0.00  0.00     0.049 C 
ATOM     29  H   LIG d   1      -1.644  -0.360  -3.852  0.00  0.00     0.077 H 
ATOM     30  H   LIG d   1      -0.405  -1.580  -4.030  0.00  0.00     0.077 H 
BRANCH  28  31
ATOM     31  C   LIG d   1      -1.038  -0.702  -5.876  0.00  0.00     0.103 C 
ATOM     32  H   LIG d   1      -1.382   0.251  -6.221  0.00  0.00     0.079 H 
ATOM     33  H   LIG d   1      -1.791  -1.440  -6.058  0.00  0.00     0.079 H 
BRANCH  31  34
ATOM     34  N   LIG d   1       0.190  -1.068  -6.593  0.00  0.00    -0.069 N 
ATOM     35  C   LIG d   1       1.150   0.035  -6.382  0.00  0.00     0.084 C 
ATOM     36  C   LIG d   1       1.832   0.234  -7.758  0.00  0.00    -0.041 C 
ATOM     37  H   LIG d   1       1.872  -0.231  -5.638  0.00  0.00     0.076 H 
ATOM     38  H   LIG d   1       0.671   0.927  -6.036  0.00  0.00     0.076 H 
ATOM     39  C   LIG d   1       0.650  -0.013  -8.732  0.00  0.00    -0.041 C 
ATOM     40  H   LIG d   1       2.618  -0.476  -7.910  0.00  0.00     0.035 H 
ATOM     41  H   LIG d   1       2.301   1.188  -7.877  0.00  0.00     0.035 H 
ATOM     42  C   LIG d   1      -0.155  -1.123  -8.025  0.00  0.00     0.084 C 
ATOM     43  H   LIG d   1       1.001  -0.342  -9.688  0.00  0.00     0.035 H 
ATOM     44  H   LIG d   1       0.073   0.867  -8.928  0.00  0.00     0.035 H 
ATOM     45  H   LIG d   1      -1.204  -0.955  -8.156  0.00  0.00     0.076 H 
ATOM     46  H   LIG d   1       0.081  -2.083  -8.435  0.00  0.00     0.076 H 
ATOM     47  H   LIG d   1       0.580  -1.956  -6.278  0.00  0.00     0.280 HD
ENDBRANCH  31  34
ENDBRANCH  28  31
ENDBRANCH  27  28
ENDBRANCH  21  27
ENDBRANCH   2  17
BRANCH   1  48
ATOM     48  C   LIG d   1      -1.220   0.943   2.053  0.00  0.00    -0.050 A 
ATOM     49  C   LIG d   1      -2.087   1.358   1.059  0.00  0.00    -0.074 A 
ATOM     50  C   LIG d   1      -3.382   0.879   1.026  0.00  0.00    -0.051 A 
ATOM     51  H   LIG d   1      -1.766   2.026   0.341  0.00  0.00     0.084 H 
ATOM     52  C   LIG d   1      -3.816  -0.010   1.997  0.00  0.00     0.065 A 
ATOM     53  H   LIG d   1      -4.026   1.183   0.279  0.00  0.00     0.087 H 
ATOM     54  C   LIG d   1      -2.947  -0.421   2.997  0.00  0.00    -0.051 A 
ATOM     55  C   LIG d   1      -1.651   0.056   3.023  0.00  0.00    -0.074 A 
ATOM     56  H   LIG d   1      -3.268  -1.083   3.721  0.00  0.00     0.087 H 
ATOM     57  H   LIG d   1      -1.004  -0.249   3.767  0.00  0.00     0.084 H 
BRANCH  52  58
ATOM     58  O   LIG d   1      -5.092  -0.478   1.970  0.00  0.00    -0.361 OA
ATOM     59  H   LIG d   1      -5.679  -0.200   1.294  0.00  0.00     0.217 HD
ENDBRANCH  52  58
ENDBRANCH   1  48
BRANCH  10  60
ATOM     60  C   LIG d   1       1.901   2.524   3.574  0.00  0.00    -0.068 C 
ATOM     61  H   LIG d   1       2.681   2.067   3.001  0.00  0.00     0.028 H 
ATOM     62  H   LIG d   1       2.224   2.640   4.587  0.00  0.00     0.028 H 
ATOM     63  H   LIG d   1       1.670   3.484   3.161  0.00  0.00     0.028 H 
ENDBRANCH  10  60
BRANCH   7  64
ATOM     64  O   LIG d   1       1.702  -1.119   7.398  0.00  0.00    -0.361 OA
ATOM     65  H   LIG d   1       1.914  -1.945   7.787  0.00  0.00     0.217 HD
ENDBRANCH   7  64
TORSDOF 9
