@<TRIPOS>MOLECULE
CM4
 65 69 0 0 0
SMALL
GASTEIGER

@<TRIPOS>ATOM
      1 C           0.1930    1.4620    2.0840 C.3     1  LIG1        0.0320
      2 C           1.1380    0.4450    1.4300 C.3     1  LIG1        0.1324
      3 O           0.8790   -0.8400    1.9720 O.3     1  LIG1       -0.4833
      4 C           1.0800   -0.8430    3.3120 C.ar    1  LIG1        0.1251
      5 C           1.4010   -2.0680    3.9000 C.ar    1  LIG1       -0.0162
      6 C           1.6100   -2.1620    5.2590 C.ar    1  LIG1       -0.0167
      7 C           1.5010   -1.0310    6.0550 C.ar    1  LIG1        0.1174
      8 O           1.7020   -1.1190    7.3980 O.3     1  LIG1       -0.5068
      9 C           1.1880    0.1850    5.4760 C.ar    1  LIG1       -0.0133
     10 C           0.9800    0.2800    4.1090 C.ar    1  LIG1        0.0013
     11 C           0.6540    1.6390    3.5350 C.3     1  LIG1       -0.0046
     12 C           1.9010    2.5240    3.5740 C.3     1  LIG1       -0.0576
     13 C          -1.2200    0.9430    2.0530 C.ar    1  LIG1       -0.0396
     14 C          -2.0870    1.3580    1.0590 C.ar    1  LIG1       -0.0547
     15 C          -3.3820    0.8790    1.0260 C.ar    1  LIG1       -0.0199
     16 C          -3.8160   -0.0100    1.9970 C.ar    1  LIG1        0.1169
     17 O          -5.0920   -0.4780    1.9700 O.3     1  LIG1       -0.5068
     18 C          -2.9470   -0.4210    2.9970 C.ar    1  LIG1       -0.0199
     19 C          -1.6510    0.0560    3.0230 C.ar    1  LIG1       -0.0547
     20 C           0.9020    0.4210   -0.0580 C.ar    1  LIG1       -0.0065
     21 C          -0.0250   -0.4500   -0.5960 C.ar    1  LIG1       -0.0516
     22 C          -0.2470   -0.4700   -1.9590 C.ar    1  LIG1       -0.0196
     23 C           0.4680    0.3790   -2.7900 C.ar    1  LIG1        0.1208
     24 C           1.4030    1.2490   -2.2480 C.ar    1  LIG1       -0.0196
     25 C           1.6180    1.2680   -0.8840 C.ar    1  LIG1       -0.0516
     26 O           0.2550    0.3580   -4.1320 O.3     1  LIG1       -0.4867
     27 C          -0.7490   -0.6270   -4.3750 C.3     1  LIG1        0.1291
     28 C          -1.0380   -0.7020   -5.8760 C.3     1  LIG1        0.0031
     29 N           0.1900   -1.0680   -6.5930 N.4     1  LIG1        0.2376
     30 C           1.1500    0.0350   -6.3820 C.3     1  LIG1       -0.0316
     31 C           1.8320    0.2340   -7.7580 C.3     1  LIG1       -0.0077
     32 C           0.6500   -0.0130   -8.7320 C.3     1  LIG1       -0.0077
     33 C          -0.1550   -1.1230   -8.0250 C.3     1  LIG1       -0.0316
     34 H           0.2159    2.3952    1.5610 H       1  LIG1        0.0394
     35 H           2.1541    0.7207    1.6207 H       1  LIG1        0.0791
     36 H           1.4826   -2.9115    3.3111 H       1  LIG1        0.0655
     37 H           1.8472   -3.0721    5.6838 H       1  LIG1        0.0655
     38 H           1.9140   -1.9447    7.7869 H       1  LIG1        0.2921
     39 H           1.1087    1.0280    6.0660 H       1  LIG1        0.0658
     40 H          -0.1209    2.1021    4.1094 H       1  LIG1        0.0354
     41 H           2.6808    2.0670    3.0013 H       1  LIG1        0.0236
     42 H           2.2241    2.6405    4.5874 H       1  LIG1        0.0236
     43 H           1.6704    3.4836    3.1606 H       1  LIG1        0.0236
     44 H          -1.7661    2.0263    0.3411 H       1  LIG1        0.0622
     45 H          -4.0260    1.1827    0.2790 H       1  LIG1        0.0654
     46 H          -5.6787   -0.2001    1.2943 H       1  LIG1        0.2921
     47 H          -3.2685   -1.0826    3.7209 H       1  LIG1        0.0654
     48 H          -1.0039   -0.2495    3.7665 H       1  LIG1        0.0622
     49 H          -0.5526   -1.0868    0.0214 H       1  LIG1        0.0623
     50 H          -0.9448   -1.1166   -2.3589 H       1  LIG1        0.0654
     51 H           1.9375    1.8816   -2.8638 H       1  LIG1        0.0654
     52 H           2.3136    1.9149   -0.4807 H       1  LIG1        0.0623
     53 H          -1.6439   -0.3605   -3.8524 H       1  LIG1        0.0751
     54 H          -0.4047   -1.5796   -4.0302 H       1  LIG1        0.0751
     55 H          -1.3821    0.2506   -6.2210 H       1  LIG1        0.0848
     56 H          -1.7908   -1.4403   -6.0579 H       1  LIG1        0.0848
     57 H           0.5798   -1.9563   -6.2776 H       1  LIG1        0.2034
     58 H           1.8720   -0.2307   -5.6383 H       1  LIG1        0.0814
     59 H           0.6709    0.9269   -6.0357 H       1  LIG1        0.0814
     60 H           2.6180   -0.4758   -7.9103 H       1  LIG1        0.0319
     61 H           2.3012    1.1883   -7.8768 H       1  LIG1        0.0319
     62 H           1.0013   -0.3418   -9.6877 H       1  LIG1        0.0319
     63 H           0.0735    0.8669   -8.9277 H       1  LIG1        0.0319
     64 H          -1.2036   -0.9553   -8.1560 H       1  LIG1        0.0814
     65 H           0.0805   -2.0827   -8.4355 H       1  LIG1        0.0814
@<TRIPOS>BOND
     1     1     2    1
     2     1    11    1
     3     1    13    1
     4     2     3    1
     5     2    20    1
     6     3     4    1
     7     4     5   ar
     8     4    10   ar
     9     5     6   ar
    10     6     7   ar
    11     7     8    1
    12     7     9   ar
    13     9    10   ar
    14    10    11    1
    15    11    12    1
    16    13    14   ar
    17    13    19   ar
    18    14    15   ar
    19    15    16   ar
    20    16    17    1
    21    16    18   ar
    22    18    19   ar
    23    20    21   ar
    24    20    25   ar
    25    21    22   ar
    26    22    23   ar
    27    23    24   ar
    28    23    26    1
    29    24    25   ar
    30    26    27    1
    31    27    28    1
    32    28    29    1
    33    29    30    1
    34    29    33    1
    35    30    31    1
    36    31    32    1
    37    32    33    1
    38     1    34    1
    39     2    35    1
    40     5    36    1
    41     6    37    1
    42     8    38    1
    43     9    39    1
    44    11    40    1
    45    12    41    1
    46    12    42    1
    47    12    43    1
    48    14    44    1
    49    15    45    1
    50    17    46    1
    51    18    47    1
    52    19    48    1
    53    21    49    1
    54    22    50    1
    55    24    51    1
    56    25    52    1
    57    27    53    1
    58    27    54    1
    59    28    55    1
    60    28    56    1
    61    29    57    1
    62    30    58    1
    63    30    59    1
    64    31    60    1
    65    31    61    1
    66    32    62    1
    67    32    63    1
    68    33    64    1
    69    33    65    1
