REMARK  3 active torsions:
REMARK  status: ('A' for Active; 'I' for Inactive)
REMARK    1  A    between atoms: C_2  and  C_20 
REMARK    2  A    between atoms: C_9  and  O_21 
REMARK    3  A    between atoms: C_11  and  O_23 
ROOT
ATOM      1  C   LIG d   1      -1.302  -1.301  -0.210  0.00  0.00     0.076 A 
ATOM      2  C   LIG d   1       0.780  -0.706   0.774  0.00  0.00     0.074 C 
ATOM      3  C   LIG d   1       0.240   0.696   1.036  0.00  0.00    -0.011 C 
ATOM      4  C   LIG d   1       0.263   1.528  -0.258  0.00  0.00     0.003 C 
ATOM      5  C   LIG d   1      -1.247   0.625   1.430  0.00  0.00    -0.014 C 
ATOM      6  C   LIG d   1      -1.972  -0.403   0.600  0.00  0.00    -0.017 A 
ATOM      7  C   LIG d   1      -4.068  -1.366  -0.080  0.00  0.00     0.066 A 
ATOM      8  C   LIG d   1      -3.393  -2.269  -0.888  0.00  0.00    -0.048 A 
ATOM      9  C   LIG d   1      -2.015  -2.233  -0.955  0.00  0.00    -0.048 A 
ATOM     10  O   LIG d   1       0.055  -1.296  -0.305  0.00  0.00    -0.340 OA
ATOM     11  C   LIG d   1      -1.029   2.364  -0.265  0.00  0.00     0.244 C 
ATOM     12  F   LIG d   1      -0.717   3.728  -0.294  0.00  0.00    -0.206 F 
ATOM     13  F   LIG d   1      -1.813   2.027  -1.373  0.00  0.00    -0.206 F 
ATOM     14  C   LIG d   1      -1.778   2.027   1.034  0.00  0.00     0.004 C 
ATOM     15  C   LIG d   1      -3.357  -0.438   0.662  0.00  0.00    -0.042 A 
ATOM     16  H   LIG d   1       0.666  -1.305   1.653  0.00  0.00     0.092 H 
ATOM     17  H   LIG d   1       0.846   1.127   1.805  0.00  0.00     0.045 H 
ATOM     18  H   LIG d   1       0.290   0.883  -1.111  0.00  0.00     0.042 H 
ATOM     19  H   LIG d   1       1.129   2.155  -0.299  0.00  0.00     0.042 H 
ATOM     20  H   LIG d   1      -1.385   0.365   2.459  0.00  0.00     0.048 H 
ATOM     21  H   LIG d   1      -3.920  -2.966  -1.438  0.00  0.00     0.087 H 
ATOM     22  H   LIG d   1      -1.512  -2.901  -1.560  0.00  0.00     0.087 H 
ATOM     23  H   LIG d   1      -1.557   2.745   1.796  0.00  0.00     0.043 H 
ATOM     24  H   LIG d   1      -2.841   2.041   0.909  0.00  0.00     0.043 H 
ATOM     25  H   LIG d   1      -3.861   0.232   1.265  0.00  0.00     0.088 H 
ENDROOT
BRANCH   2  26
ATOM     26  C   LIG d   1       2.240  -0.622   0.412  0.00  0.00    -0.028 A 
ATOM     27  C   LIG d   1       3.204  -0.897   1.364  0.00  0.00    -0.072 A 
ATOM     28  C   LIG d   1       4.544  -0.821   1.035  0.00  0.00    -0.050 A 
ATOM     29  H   LIG d   1       2.922  -1.159   2.322  0.00  0.00     0.084 H 
ATOM     30  C   LIG d   1       4.921  -0.469  -0.252  0.00  0.00     0.065 A 
ATOM     31  H   LIG d   1       5.263  -1.026   1.746  0.00  0.00     0.087 H 
ATOM     32  C   LIG d   1       3.952  -0.193  -1.206  0.00  0.00    -0.050 A 
ATOM     33  C   LIG d   1       2.614  -0.270  -0.872  0.00  0.00    -0.072 A 
ATOM     34  H   LIG d   1       4.231   0.070  -2.164  0.00  0.00     0.087 H 
ATOM     35  H   LIG d   1       1.893  -0.065  -1.581  0.00  0.00     0.084 H 
BRANCH  30  36
ATOM     36  O   LIG d   1       6.239  -0.393  -0.578  0.00  0.00    -0.361 OA
ATOM     37  H   LIG d   1       6.893  -0.580   0.067  0.00  0.00     0.217 HD
ENDBRANCH  30  36
ENDBRANCH   2  26
BRANCH   7  38
ATOM     38  O   LIG d   1      -5.425  -1.396  -0.011  0.00  0.00    -0.361 OA
ATOM     39  H   LIG d   1      -5.906  -2.024  -0.513  0.00  0.00     0.217 HD
ENDBRANCH   7  38
TORSDOF 3
