@<TRIPOS>MOLECULE
DC8
 39 42 0 0 0
SMALL
GASTEIGER

@<TRIPOS>ATOM
      1 C          -1.3020   -1.3010   -0.2100 C.ar    1  LIG1        0.1251
      2 C           0.7800   -0.7060    0.7740 C.3     1  LIG1        0.1287
      3 C           0.2400    0.6960    1.0360 C.3     1  LIG1        0.0128
      4 C           0.2630    1.5280   -0.2580 C.3     1  LIG1        0.0178
      5 C          -1.2470    0.6250    1.4300 C.3     1  LIG1       -0.0002
      6 C          -1.9720   -0.4030    0.6000 C.ar    1  LIG1        0.0014
      7 C           3.2040   -0.8970    1.3640 C.ar    1  LIG1       -0.0516
      8 C           4.5440   -0.8210    1.0350 C.ar    1  LIG1       -0.0198
      9 C           4.9210   -0.4690   -0.2520 C.ar    1  LIG1        0.1169
     10 C           3.9520   -0.1930   -1.2060 C.ar    1  LIG1       -0.0198
     11 C          -4.0680   -1.3660   -0.0800 C.ar    1  LIG1        0.1174
     12 C          -3.3930   -2.2690   -0.8880 C.ar    1  LIG1       -0.0167
     13 C          -2.0150   -2.2330   -0.9550 C.ar    1  LIG1       -0.0162
     14 O           0.0550   -1.2960   -0.3050 O.3     1  LIG1       -0.4836
     15 C          -1.0290    2.3640   -0.2650 C.3     1  LIG1        0.2499
     16 F          -0.7170    3.7280   -0.2940 F       1  LIG1       -0.2056
     17 F          -1.8130    2.0270   -1.3730 F       1  LIG1       -0.2056
     18 C          -1.7780    2.0270    1.0340 C.3     1  LIG1        0.0181
     19 C          -3.3570   -0.4380    0.6620 C.ar    1  LIG1       -0.0133
     20 C           2.2400   -0.6220    0.4120 C.ar    1  LIG1       -0.0068
     21 O           6.2390   -0.3930   -0.5780 O.3     1  LIG1       -0.5068
     22 C           2.6140   -0.2700   -0.8720 C.ar    1  LIG1       -0.0516
     23 O          -5.4250   -1.3960   -0.0110 O.3     1  LIG1       -0.5068
     24 H           0.6657   -1.3051    1.6531 H       1  LIG1        0.0787
     25 H           0.8461    1.1274    1.8050 H       1  LIG1        0.0348
     26 H           0.2903    0.8831   -1.1114 H       1  LIG1        0.0327
     27 H           1.1290    2.1551   -0.2987 H       1  LIG1        0.0327
     28 H          -1.3847    0.3652    2.4588 H       1  LIG1        0.0356
     29 H           2.9225   -1.1594    2.3216 H       1  LIG1        0.0623
     30 H           5.2631   -1.0260    1.7463 H       1  LIG1        0.0654
     31 H           4.2308    0.0696   -2.1643 H       1  LIG1        0.0654
     32 H          -3.9197   -2.9658   -1.4375 H       1  LIG1        0.0655
     33 H          -1.5121   -2.9005   -1.5604 H       1  LIG1        0.0655
     34 H          -1.5572    2.7450    1.7960 H       1  LIG1        0.0329
     35 H          -2.8405    2.0412    0.9086 H       1  LIG1        0.0329
     36 H          -3.8606    0.2315    1.2646 H       1  LIG1        0.0658
     37 H           6.8926   -0.5796    0.0669 H       1  LIG1        0.2921
     38 H           1.8929   -0.0647   -1.5811 H       1  LIG1        0.0623
     39 H          -5.9059   -2.0241   -0.5132 H       1  LIG1        0.2921
@<TRIPOS>BOND
     1     1    13   ar
     2     1    14    1
     3     1     6   ar
     4     2    14    1
     5     2    20    1
     6     2     3    1
     7     3     5    1
     8     3     4    1
     9     4    15    1
    10     5     6    1
    11     5    18    1
    12     6    19   ar
    13     7    20   ar
    14     7     8   ar
    15     8     9   ar
    16     9    10   ar
    17     9    21    1
    18    10    22   ar
    19    11    12   ar
    20    11    23    1
    21    11    19   ar
    22    12    13   ar
    23    15    18    1
    24    15    17    1
    25    15    16    1
    26    20    22   ar
    27     2    24    1
    28     3    25    1
    29     4    26    1
    30     4    27    1
    31     5    28    1
    32     7    29    1
    33     8    30    1
    34    10    31    1
    35    12    32    1
    36    13    33    1
    37    18    34    1
    38    18    35    1
    39    19    36    1
    40    21    37    1
    41    22    38    1
    42    23    39    1
