@<TRIPOS>MOLECULE
DES
 40 41 0 0 0
SMALL
GASTEIGER

@<TRIPOS>ATOM
      1 C           2.3520    0.9940    0.9590 C.3     1  LIG1       -0.0612
      2 C           1.9400   -0.2300    0.1400 C.3     1  LIG1       -0.0297
      3 C           0.5680   -0.0070   -0.4410 C.2     1  LIG1       -0.0368
      4 C           0.3760   -0.0240   -1.9020 C.ar    1  LIG1       -0.0214
      5 C           0.0590    1.1550   -2.5810 C.ar    1  LIG1       -0.0509
      6 C          -0.1190    1.1340   -3.9470 C.ar    1  LIG1       -0.0196
      7 C           0.0140   -0.0560   -4.6490 C.ar    1  LIG1        0.1169
      8 O          -0.1630   -0.0710   -5.9960 O.3     1  LIG1       -0.5068
      9 C           0.3280   -1.2310   -3.9790 C.ar    1  LIG1       -0.0196
     10 C           0.5150   -1.2190   -2.6130 C.ar    1  LIG1       -0.0509
     11 C          -0.4780    0.2060    0.3710 C.2     1  LIG1       -0.0368
     12 C          -0.3160    0.0800    1.8300 C.ar    1  LIG1       -0.0214
     13 C          -0.5680    1.1760    2.6610 C.ar    1  LIG1       -0.0509
     14 C          -0.4150    1.0530    4.0250 C.ar    1  LIG1       -0.0196
     15 C          -0.0110   -0.1560    4.5740 C.ar    1  LIG1        0.1169
     16 O           0.1370   -0.2730    5.9200 O.3     1  LIG1       -0.5068
     17 C           0.2400   -1.2480    3.7530 C.ar    1  LIG1       -0.0196
     18 C           0.0840   -1.1360    2.3880 C.ar    1  LIG1       -0.0509
     19 C          -1.8190    0.5750   -0.2080 C.3     1  LIG1       -0.0297
     20 C          -2.6670   -0.6860   -0.3780 C.3     1  LIG1       -0.0612
     21 H           3.3264    0.8355    1.3716 H       1  LIG1        0.0233
     22 H           1.6494    1.1458    1.7516 H       1  LIG1        0.0233
     23 H           2.3684    1.8571    0.3268 H       1  LIG1        0.0233
     24 H           1.9236   -1.0931    0.7722 H       1  LIG1        0.0311
     25 H           2.6426   -0.3817   -0.6526 H       1  LIG1        0.0311
     26 H          -0.0417    2.0403   -2.0602 H       1  LIG1        0.0625
     27 H          -0.3517    2.0049   -4.4494 H       1  LIG1        0.0654
     28 H          -0.3749    0.7211   -6.4495 H       1  LIG1        0.2921
     29 H           0.4215   -2.1144   -4.5042 H       1  LIG1        0.0654
     30 H           0.7571   -2.0908   -2.1166 H       1  LIG1        0.0625
     31 H          -0.8680    2.0754    2.2535 H       1  LIG1        0.0625
     32 H          -0.6011    1.8611    4.6392 H       1  LIG1        0.0654
     33 H          -0.0318    0.4624    6.4756 H       1  LIG1        0.2921
     34 H           0.5436   -2.1440    4.1654 H       1  LIG1        0.0654
     35 H           0.2626   -1.9499    1.7791 H       1  LIG1        0.0625
     36 H          -1.6796    1.0418   -1.1606 H       1  LIG1        0.0311
     37 H          -2.3177    1.2530    0.4527 H       1  LIG1        0.0311
     38 H          -2.1688   -1.3644   -1.0387 H       1  LIG1        0.0233
     39 H          -3.6193   -0.4227   -0.7888 H       1  LIG1        0.0233
     40 H          -2.8063   -1.1532    0.5745 H       1  LIG1        0.0233
@<TRIPOS>BOND
     1     1     2    1
     2     2     3    1
     3     3     4    1
     4     3    11    2
     5     4     5   ar
     6     4    10   ar
     7     5     6   ar
     8     6     7   ar
     9     7     8    1
    10     7     9   ar
    11     9    10   ar
    12    11    12    1
    13    11    19    1
    14    12    13   ar
    15    12    18   ar
    16    13    14   ar
    17    14    15   ar
    18    15    16    1
    19    15    17   ar
    20    17    18   ar
    21    19    20    1
    22     1    21    1
    23     1    22    1
    24     1    23    1
    25     2    24    1
    26     2    25    1
    27     5    26    1
    28     6    27    1
    29     8    28    1
    30     9    29    1
    31    10    30    1
    32    13    31    1
    33    14    32    1
    34    16    33    1
    35    17    34    1
    36    18    35    1
    37    19    36    1
    38    19    37    1
    39    20    38    1
    40    20    39    1
    41    20    40    1
