REMARK  8 active torsions:
REMARK  status: ('A' for Active; 'I' for Inactive)
REMARK    1  A    between atoms: C_1  and  C_2 
REMARK    2  A    between atoms: C_2  and  C_3 
REMARK    3  A    between atoms: C_3  and  C_4 
REMARK    4  A    between atoms: C_7  and  O_8 
REMARK    5  A    between atoms: C_11  and  C_12 
REMARK    6  A    between atoms: C_11  and  C_19 
REMARK    7  A    between atoms: C_15  and  O_16 
REMARK    8  A    between atoms: C_19  and  C_20 
ROOT
ATOM      1  C   LIG d   1       0.568  -0.007  -0.441  0.00  0.00    -0.041 C 
ATOM      2  C   LIG d   1      -0.478   0.206   0.371  0.00  0.00    -0.041 C 
ENDROOT
BRANCH   1   3
ATOM      3  C   LIG d   1       1.940  -0.230   0.140  0.00  0.00    -0.043 C 
ATOM      4  H   LIG d   1       1.924  -1.093   0.772  0.00  0.00     0.039 H 
ATOM      5  H   LIG d   1       2.643  -0.382  -0.653  0.00  0.00     0.039 H 
BRANCH   3   6
ATOM      6  C   LIG d   1       2.352   0.994   0.959  0.00  0.00    -0.073 C 
ATOM      7  H   LIG d   1       3.326   0.836   1.372  0.00  0.00     0.028 H 
ATOM      8  H   LIG d   1       1.649   1.146   1.752  0.00  0.00     0.028 H 
ATOM      9  H   LIG d   1       2.368   1.857   0.327  0.00  0.00     0.028 H 
ENDBRANCH   3   6
ENDBRANCH   1   3
BRANCH   1  10
ATOM     10  C   LIG d   1       0.376  -0.024  -1.902  0.00  0.00    -0.029 A 
ATOM     11  C   LIG d   1       0.059   1.155  -2.581  0.00  0.00    -0.070 A 
ATOM     12  C   LIG d   1      -0.119   1.134  -3.947  0.00  0.00    -0.050 A 
ATOM     13  H   LIG d   1      -0.042   2.040  -2.060  0.00  0.00     0.084 H 
ATOM     14  C   LIG d   1       0.014  -0.056  -4.649  0.00  0.00     0.065 A 
ATOM     15  H   LIG d   1      -0.352   2.005  -4.449  0.00  0.00     0.087 H 
ATOM     16  C   LIG d   1       0.328  -1.231  -3.979  0.00  0.00    -0.050 A 
ATOM     17  C   LIG d   1       0.515  -1.219  -2.613  0.00  0.00    -0.070 A 
ATOM     18  H   LIG d   1       0.421  -2.114  -4.504  0.00  0.00     0.087 H 
ATOM     19  H   LIG d   1       0.757  -2.091  -2.117  0.00  0.00     0.084 H 
BRANCH  14  20
ATOM     20  O   LIG d   1      -0.163  -0.071  -5.996  0.00  0.00    -0.361 OA
ATOM     21  H   LIG d   1      -0.375   0.721  -6.449  0.00  0.00     0.217 HD
ENDBRANCH  14  20
ENDBRANCH   1  10
BRANCH   2  22
ATOM     22  C   LIG d   1      -0.316   0.080   1.830  0.00  0.00    -0.029 A 
ATOM     23  C   LIG d   1      -0.568   1.176   2.661  0.00  0.00    -0.070 A 
ATOM     24  C   LIG d   1      -0.415   1.053   4.025  0.00  0.00    -0.050 A 
ATOM     25  H   LIG d   1      -0.868   2.075   2.253  0.00  0.00     0.084 H 
ATOM     26  C   LIG d   1      -0.011  -0.156   4.574  0.00  0.00     0.065 A 
ATOM     27  H   LIG d   1      -0.601   1.861   4.639  0.00  0.00     0.087 H 
ATOM     28  C   LIG d   1       0.240  -1.248   3.753  0.00  0.00    -0.050 A 
ATOM     29  C   LIG d   1       0.084  -1.136   2.388  0.00  0.00    -0.070 A 
ATOM     30  H   LIG d   1       0.544  -2.144   4.165  0.00  0.00     0.087 H 
ATOM     31  H   LIG d   1       0.263  -1.950   1.779  0.00  0.00     0.084 H 
BRANCH  26  32
ATOM     32  O   LIG d   1       0.137  -0.273   5.920  0.00  0.00    -0.361 OA
ATOM     33  H   LIG d   1      -0.032   0.462   6.476  0.00  0.00     0.217 HD
ENDBRANCH  26  32
ENDBRANCH   2  22
BRANCH   2  34
ATOM     34  C   LIG d   1      -1.819   0.575  -0.208  0.00  0.00    -0.043 C 
ATOM     35  H   LIG d   1      -1.680   1.042  -1.161  0.00  0.00     0.039 H 
ATOM     36  H   LIG d   1      -2.318   1.253   0.453  0.00  0.00     0.039 H 
BRANCH  34  37
ATOM     37  C   LIG d   1      -2.667  -0.686  -0.378  0.00  0.00    -0.073 C 
ATOM     38  H   LIG d   1      -2.169  -1.364  -1.039  0.00  0.00     0.028 H 
ATOM     39  H   LIG d   1      -3.619  -0.423  -0.789  0.00  0.00     0.028 H 
ATOM     40  H   LIG d   1      -2.806  -1.153   0.575  0.00  0.00     0.028 H 
ENDBRANCH  34  37
ENDBRANCH   2  34
TORSDOF 8
