DRQ
  CCTOOLS-0106121216

 54 57  0  0  1  0  0  0  0  0999 V2000
   -4.5280    2.7570   -1.9470 C   0  0  0  0  0
   -3.6030    2.3360   -0.8030 C   0  0  0  0  0
   -4.4250    2.0360    0.4240 C   0  0  0  0  0
   -4.2850    0.8740    1.0480 C   0  0  0  0  0
   -3.2190   -0.0620    0.6360 C   0  0  0  0  0
   -1.9500    0.4140    0.3200 C   0  0  0  0  0
   -0.9470   -0.4610   -0.0650 C   0  0  0  0  0
    0.3980    0.1120   -0.4070 C   0  0  0  0  0
    0.7370    1.3180    0.4570 C   0  0  0  0  0
    2.1220    1.8810    0.0860 C   0  0  0  0  0
    3.1300    0.7620    0.2430 C   0  0  0  0  0
    3.0540    0.1980    1.6640 C   0  0  0  0  0
    4.5790    1.0870   -0.1010 C   0  0  0  0  0
    5.2870    1.4940    1.0720 O   0  0  0  0  0
    5.1730   -0.2310   -0.6570 C   0  0  0  0  0
    4.0070   -1.2560   -0.6940 C   0  0  0  0  0
    2.7750   -0.3540   -0.7790 C   0  0  0  0  0
    1.4770   -0.9740   -0.3030 C   0  0  0  0  0
    1.0500   -2.1460   -1.1860 C   0  0  0  0  0
   -0.1520   -2.8240   -0.5300 C   0  0  0  0  0
   -1.2000   -1.8170   -0.1340 C   0  0  0  0  0
   -2.4670   -2.2980    0.1760 C   0  0  0  0  0
   -3.4750   -1.4370    0.5660 C   0  0  0  0  0
   -4.7070   -1.9200    0.8730 O   0  0  0  0  0
   -3.9320    2.9740   -2.8340 H   0  0  0  0  0
   -5.2250    1.9480   -2.1660 H   0  0  0  0  0
   -5.0840    3.6470   -1.6550 H   0  0  0  0  0
   -3.0460    1.4450   -1.0940 H   0  0  0  0  0
   -2.9050    3.1450   -0.5830 H   0  0  0  0  0
   -5.1290    2.7670    0.7940 H   0  0  0  0  0
   -4.9500    0.6130    1.8590 H   0  0  0  0  0
   -1.7460    1.4730    0.3750 H   0  0  0  0  0
    0.3690    0.4410   -1.4460 H   0  0  0  0  0
   -0.0170    2.0910    0.3070 H   0  0  0  0  0
    0.7400    1.0190    1.5060 H   0  0  0  0  0
    2.1150    2.2290   -0.9470 H   0  0  0  0  0
    2.3770    2.7050    0.7520 H   0  0  0  0  0
    2.0290   -0.1020    1.8810 H   0  0  0  0  0
    3.7120   -0.6660    1.7480 H   0  0  0  0  0
    3.3660    0.9630    2.3750 H   0  0  0  0  0
    4.6210    1.8700   -0.8570 H   0  0  0  0  0
    6.2160    1.7140    0.9140 H   0  0  0  0  0
    5.5630   -0.0710   -1.6620 H   0  0  0  0  0
    5.9660   -0.5900   -0.0000 H   0  0  0  0  0
    4.0790   -1.8900   -1.5780 H   0  0  0  0  0
    3.9940   -1.8590    0.2140 H   0  0  0  0  0
    2.6680    0.0640   -1.7800 H   0  0  0  0  0
    1.5800   -1.2930    0.7340 H   0  0  0  0  0
    0.7710   -1.7790   -2.1740 H   0  0  0  0  0
    1.8700   -2.8580   -1.2760 H   0  0  0  0  0
   -0.5880   -3.5350   -1.2320 H   0  0  0  0  0
    0.1820   -3.3600    0.3590 H   0  0  0  0  0
   -2.6640   -3.3580    0.1150 H   0  0  0  0  0
   -5.3090   -1.9720    0.1190 H   0  0  0  0  0
  1  2  1  0  0  0
  1 25  1  0  0  0
  1 26  1  0  0  0
  1 27  1  0  0  0
  2  3  1  0  0  0
  2 28  1  0  0  0
  2 29  1  0  0  0
  3  4  2  0  0  0
  3 30  1  0  0  0
  4  5  1  0  0  0
  4 31  1  0  0  0
  5  6  2  0  0  0
  5 23  1  0  0  0
  6  7  1  0  0  0
  6 32  1  0  0  0
  7  8  1  0  0  0
  7 21  2  0  0  0
  8  9  1  0  0  0
  8 18  1  0  0  0
  8 33  1  0  0  0
  9 10  1  0  0  0
  9 34  1  0  0  0
  9 35  1  0  0  0
 10 11  1  0  0  0
 10 36  1  0  0  0
 10 37  1  0  0  0
 11 12  1  0  0  0
 11 13  1  0  0  0
 11 17  1  0  0  0
 12 38  1  0  0  0
 12 39  1  0  0  0
 12 40  1  0  0  0
 13 14  1  0  0  0
 13 15  1  0  0  0
 13 41  1  0  0  0
 14 42  1  0  0  0
 15 16  1  0  0  0
 15 43  1  0  0  0
 15 44  1  0  0  0
 16 17  1  0  0  0
 16 45  1  0  0  0
 16 46  1  0  0  0
 17 18  1  0  0  0
 17 47  1  0  0  0
 18 19  1  0  0  0
 18 48  1  0  0  0
 19 20  1  0  0  0
 19 49  1  0  0  0
 19 50  1  0  0  0
 20 21  1  0  0  0
 20 51  1  0  0  0
 20 52  1  0  0  0
 21 22  1  0  0  0
 22 23  2  0  0  0
 22 53  1  0  0  0
 23 24  1  0  0  0
 24 54  1  0  0  0
M  END
$$$$
