@<TRIPOS>MOLECULE
DRQ
 54 57 0 0 0
SMALL
GASTEIGER

@<TRIPOS>ATOM
      1 C          -4.5280    2.7570   -1.9470 C.3     1  LIG1       -0.0618
      2 C          -3.6030    2.3360   -0.8030 C.3     1  LIG1       -0.0373
      3 C          -4.4250    2.0360    0.4240 C.2     1  LIG1       -0.0836
      4 C          -4.2850    0.8740    1.0480 C.2     1  LIG1       -0.0550
      5 C          -3.2190   -0.0620    0.6360 C.ar    1  LIG1        0.0164
      6 C          -1.9500    0.4140    0.3200 C.ar    1  LIG1       -0.0474
      7 C          -0.9470   -0.4610   -0.0650 C.ar    1  LIG1       -0.0400
      8 C           0.3980    0.1120   -0.4070 C.3     1  LIG1       -0.0124
      9 C           0.7370    1.3180    0.4570 C.3     1  LIG1       -0.0454
     10 C           2.1220    1.8810    0.0860 C.3     1  LIG1       -0.0445
     11 C           3.1300    0.7620    0.2430 C.3     1  LIG1       -0.0030
     12 C           3.0540    0.1980    1.6640 C.3     1  LIG1       -0.0569
     13 C           4.5790    1.0870   -0.1010 C.3     1  LIG1        0.0609
     14 O           5.2870    1.4940    1.0720 O.3     1  LIG1       -0.3912
     15 C           5.1730   -0.2310   -0.6570 C.3     1  LIG1       -0.0261
     16 C           4.0070   -1.2560   -0.6940 C.3     1  LIG1       -0.0470
     17 C           2.7750   -0.3540   -0.7790 C.3     1  LIG1       -0.0298
     18 C           1.4770   -0.9740   -0.3030 C.3     1  LIG1       -0.0305
     19 C           1.0500   -2.1460   -1.1860 C.3     1  LIG1       -0.0454
     20 C          -0.1520   -2.8240   -0.5300 C.3     1  LIG1       -0.0270
     21 C          -1.2000   -1.8170   -0.1340 C.ar    1  LIG1       -0.0404
     22 C          -2.4670   -2.2980    0.1760 C.ar    1  LIG1       -0.0161
     23 C          -3.4750   -1.4370    0.5660 C.ar    1  LIG1        0.1242
     24 O          -4.7070   -1.9200    0.8730 O.3     1  LIG1       -0.5062
     25 H          -3.9440    2.9699   -2.8179 H       1  LIG1        0.0233
     26 H          -5.0737    3.6318   -1.6609 H       1  LIG1        0.0233
     27 H          -5.2131    1.9637   -2.1621 H       1  LIG1        0.0233
     28 H          -2.9179    3.1293   -0.5880 H       1  LIG1        0.0305
     29 H          -3.0575    1.4611   -1.0893 H       1  LIG1        0.0305
     30 H          -5.0967    2.7346    0.7787 H       1  LIG1        0.0572
     31 H          -4.9208    0.6238    1.8214 H       1  LIG1        0.0621
     32 H          -1.7546    1.4260    0.3728 H       1  LIG1        0.0627
     33 H           0.3627    0.4598   -1.4183 H       1  LIG1        0.0352
     34 H           0.7417    1.0231    1.4856 H       1  LIG1        0.0271
     35 H           0.0014    2.0773    0.2920 H       1  LIG1        0.0271
     36 H           2.3726    2.6916    0.7380 H       1  LIG1        0.0272
     37 H           2.1212    2.2467   -0.9195 H       1  LIG1        0.0272
     38 H           3.2986    0.9671    2.3665 H       1  LIG1        0.0236
     39 H           3.7477   -0.6105    1.7644 H       1  LIG1        0.0236
     40 H           2.0627   -0.1569    1.8543 H       1  LIG1        0.0236
     41 H           4.6527    1.8876   -0.8071 H       1  LIG1        0.0599
     42 H           5.2417    0.7899    1.7376 H       1  LIG1        0.2098
     43 H           5.9552   -0.5832   -0.0174 H       1  LIG1        0.0290
     44 H           5.5938   -0.0868   -1.6302 H       1  LIG1        0.0290
     45 H           3.9886   -1.8528    0.1939 H       1  LIG1        0.0269
     46 H           4.0797   -1.9554   -1.5005 H       1  LIG1        0.0269
     47 H           2.5992   -0.0755   -1.7971 H       1  LIG1        0.0310
     48 H           1.6079   -1.3379    0.6947 H       1  LIG1        0.0310
     49 H           1.8556   -2.8444   -1.2756 H       1  LIG1        0.0271
     50 H           0.7899   -1.7971   -2.1635 H       1  LIG1        0.0271
     51 H           0.1767   -3.3468    0.3438 H       1  LIG1        0.0313
     52 H          -0.5845   -3.5014   -1.2363 H       1  LIG1        0.0313
     53 H          -2.6570   -3.3105    0.1141 H       1  LIG1        0.0657
     54 H          -5.3879   -1.3330    1.1370 H       1  LIG1        0.2922
@<TRIPOS>BOND
     1     1     2    1
     2     2     3    1
     3     3     4    2
     4     4     5    1
     5     5     6   ar
     6     5    23   ar
     7     6     7   ar
     8     7     8    1
     9     7    21   ar
    10     8     9    1
    11     8    18    1
    12     9    10    1
    13    10    11    1
    14    11    12    1
    15    11    13    1
    16    11    17    1
    17    13    14    1
    18    13    15    1
    19    15    16    1
    20    16    17    1
    21    17    18    1
    22    18    19    1
    23    19    20    1
    24    20    21    1
    25    21    22   ar
    26    22    23   ar
    27    23    24    1
    28     1    25    1
    29     1    26    1
    30     1    27    1
    31     2    28    1
    32     2    29    1
    33     3    30    1
    34     4    31    1
    35     6    32    1
    36     8    33    1
    37     9    34    1
    38     9    35    1
    39    10    36    1
    40    10    37    1
    41    12    38    1
    42    12    39    1
    43    12    40    1
    44    13    41    1
    45    14    42    1
    46    15    43    1
    47    15    44    1
    48    16    45    1
    49    16    46    1
    50    17    47    1
    51    18    48    1
    52    19    49    1
    53    19    50    1
    54    20    51    1
    55    20    52    1
    56    22    53    1
    57    24    54    1
