REMARK  6 active torsions:
REMARK  status: ('A' for Active; 'I' for Inactive)
REMARK    1  A    between atoms: C_1  and  C_2 
REMARK    2  A    between atoms: C_2  and  C_3 
REMARK    3  A    between atoms: C_4  and  C_5 
REMARK    4  A    between atoms: C_11  and  C_12 
REMARK    5  A    between atoms: C_13  and  O_14 
REMARK    6  A    between atoms: C_23  and  O_24 
ROOT
ATOM      1  C   LIG d   1      -3.219  -0.062   0.636  0.00  0.00    -0.003 A 
ATOM      2  C   LIG d   1      -1.950   0.414   0.320  0.00  0.00    -0.063 A 
ATOM      3  C   LIG d   1      -0.947  -0.461  -0.065  0.00  0.00    -0.046 A 
ATOM      4  C   LIG d   1       0.398   0.112  -0.407  0.00  0.00    -0.024 C 
ATOM      5  C   LIG d   1       0.737   1.318   0.457  0.00  0.00    -0.057 C 
ATOM      6  C   LIG d   1       2.122   1.881   0.086  0.00  0.00    -0.055 C 
ATOM      7  C   LIG d   1       3.130   0.762   0.243  0.00  0.00    -0.014 C 
ATOM      8  C   LIG d   1       4.579   1.087  -0.101  0.00  0.00     0.043 C 
ATOM      9  C   LIG d   1       5.173  -0.231  -0.657  0.00  0.00    -0.040 C 
ATOM     10  C   LIG d   1       4.007  -1.256  -0.694  0.00  0.00    -0.058 C 
ATOM     11  C   LIG d   1       2.775  -0.354  -0.779  0.00  0.00    -0.041 C 
ATOM     12  C   LIG d   1       1.477  -0.974  -0.303  0.00  0.00    -0.042 C 
ATOM     13  C   LIG d   1       1.050  -2.146  -1.186  0.00  0.00    -0.057 C 
ATOM     14  C   LIG d   1      -0.152  -2.824  -0.530  0.00  0.00    -0.040 C 
ATOM     15  C   LIG d   1      -1.200  -1.817  -0.134  0.00  0.00    -0.049 A 
ATOM     16  C   LIG d   1      -2.467  -2.298   0.176  0.00  0.00    -0.044 A 
ATOM     17  C   LIG d   1      -3.475  -1.437   0.566  0.00  0.00     0.076 A 
ATOM     18  H   LIG d   1      -1.755   1.426   0.373  0.00  0.00     0.085 H 
ATOM     19  H   LIG d   1       0.363   0.460  -1.418  0.00  0.00     0.048 H 
ATOM     20  H   LIG d   1       0.742   1.023   1.486  0.00  0.00     0.034 H 
ATOM     21  H   LIG d   1       0.001   2.077   0.292  0.00  0.00     0.034 H 
ATOM     22  H   LIG d   1       2.373   2.692   0.738  0.00  0.00     0.034 H 
ATOM     23  H   LIG d   1       2.121   2.247  -0.919  0.00  0.00     0.034 H 
ATOM     24  H   LIG d   1       4.653   1.888  -0.807  0.00  0.00     0.084 H 
ATOM     25  H   LIG d   1       5.955  -0.583  -0.017  0.00  0.00     0.036 H 
ATOM     26  H   LIG d   1       5.594  -0.087  -1.630  0.00  0.00     0.036 H 
ATOM     27  H   LIG d   1       3.989  -1.853   0.194  0.00  0.00     0.033 H 
ATOM     28  H   LIG d   1       4.080  -1.955  -1.500  0.00  0.00     0.033 H 
ATOM     29  H   LIG d   1       2.599  -0.075  -1.797  0.00  0.00     0.042 H 
ATOM     30  H   LIG d   1       1.608  -1.338   0.695  0.00  0.00     0.041 H 
ATOM     31  H   LIG d   1       1.856  -2.844  -1.276  0.00  0.00     0.034 H 
ATOM     32  H   LIG d   1       0.790  -1.797  -2.163  0.00  0.00     0.034 H 
ATOM     33  H   LIG d   1       0.177  -3.347   0.344  0.00  0.00     0.040 H 
ATOM     34  H   LIG d   1      -0.585  -3.501  -1.236  0.00  0.00     0.040 H 
ATOM     35  H   LIG d   1      -2.657  -3.311   0.114  0.00  0.00     0.088 H 
ENDROOT
BRANCH   1  36
ATOM     36  C   LIG d   1      -4.285   0.874   1.048  0.00  0.00    -0.074 C 
ATOM     37  C   LIG d   1      -4.425   2.036   0.424  0.00  0.00    -0.102 C 
ATOM     38  H   LIG d   1      -5.097   2.735   0.779  0.00  0.00     0.076 H 
ATOM     39  H   LIG d   1      -4.921   0.624   1.821  0.00  0.00     0.084 H 
BRANCH  37  40
ATOM     40  C   LIG d   1      -3.603   2.336  -0.803  0.00  0.00    -0.053 C 
ATOM     41  H   LIG d   1      -2.918   3.129  -0.588  0.00  0.00     0.038 H 
ATOM     42  H   LIG d   1      -3.058   1.461  -1.089  0.00  0.00     0.038 H 
BRANCH  40  43
ATOM     43  C   LIG d   1      -4.528   2.757  -1.947  0.00  0.00    -0.073 C 
ATOM     44  H   LIG d   1      -3.944   2.970  -2.818  0.00  0.00     0.027 H 
ATOM     45  H   LIG d   1      -5.074   3.632  -1.661  0.00  0.00     0.027 H 
ATOM     46  H   LIG d   1      -5.213   1.964  -2.162  0.00  0.00     0.027 H 
ENDBRANCH  40  43
ENDBRANCH  37  40
ENDBRANCH   1  36
BRANCH  17  47
ATOM     47  O   LIG d   1      -4.707  -1.920   0.873  0.00  0.00    -0.360 OA
ATOM     48  H   LIG d   1      -5.388  -1.333   1.137  0.00  0.00     0.217 HD
ENDBRANCH  17  47
BRANCH   7  49
ATOM     49  C   LIG d   1       3.054   0.198   1.664  0.00  0.00    -0.066 C 
ATOM     50  H   LIG d   1       3.299   0.967   2.366  0.00  0.00     0.028 H 
ATOM     51  H   LIG d   1       3.748  -0.611   1.764  0.00  0.00     0.028 H 
ATOM     52  H   LIG d   1       2.063  -0.157   1.854  0.00  0.00     0.028 H 
ENDBRANCH   7  49
BRANCH   8  53
ATOM     53  O   LIG d   1       5.287   1.494   1.072  0.00  0.00    -0.395 OA
ATOM     54  H   LIG d   1       5.242   0.790   1.738  0.00  0.00     0.210 HD
ENDBRANCH   8  53
TORSDOF 6
