REMARK  8 active torsions:
REMARK  status: ('A' for Active; 'I' for Inactive)
REMARK    1  A    between atoms: C_1  and  C_12 
REMARK    2  A    between atoms: C_2  and  C_19 
REMARK    3  A    between atoms: C_7  and  O_8 
REMARK    4  A    between atoms: C_15  and  O_16 
REMARK    5  A    between atoms: C_22  and  O_25 
REMARK    6  A    between atoms: O_25  and  C_26 
REMARK    7  A    between atoms: C_26  and  C_27 
REMARK    8  A    between atoms: C_27  and  N_28 
ROOT
ATOM      1  C   LIG d   1      -1.083   0.003  -0.226  0.00  0.00    -0.027 A 
ATOM      2  C   LIG d   1      -1.838   0.710   0.690  0.00  0.00    -0.072 A 
ATOM      3  C   LIG d   1      -1.817   0.354   2.025  0.00  0.00    -0.050 A 
ATOM      4  C   LIG d   1      -1.029  -0.706   2.446  0.00  0.00     0.068 A 
ATOM      5  C   LIG d   1      -0.268  -1.410   1.525  0.00  0.00    -0.050 A 
ATOM      6  C   LIG d   1      -0.296  -1.054   0.191  0.00  0.00    -0.072 A 
ATOM      7  H   LIG d   1      -2.418   1.504   0.377  0.00  0.00     0.084 H 
ATOM      8  H   LIG d   1      -2.387   0.877   2.708  0.00  0.00     0.087 H 
ATOM      9  H   LIG d   1       0.319  -2.200   1.836  0.00  0.00     0.087 H 
ATOM     10  H   LIG d   1       0.271  -1.577  -0.495  0.00  0.00     0.084 H 
ENDROOT
BRANCH   1  11
ATOM     11  C   LIG d   1      -1.112   0.389  -1.682  0.00  0.00     0.086 C 
ATOM     12  C   LIG d   1      -0.005   1.419  -1.965  0.00  0.00     0.050 C 
ATOM     13  S   LIG d   1      -0.376   2.146  -3.590  0.00  0.00    -0.114 SA
ATOM     14  H   LIG d   1       0.029   2.171  -1.204  0.00  0.00     0.069 H 
ATOM     15  C   LIG d   1      -0.830   0.675  -4.456  0.00  0.00     0.037 A 
ATOM     16  C   LIG d   1      -1.046  -0.527  -3.802  0.00  0.00     0.086 A 
ATOM     17  C   LIG d   1      -0.970   0.756  -5.840  0.00  0.00    -0.032 A 
ATOM     18  O   LIG d   1      -0.886  -0.754  -2.480  0.00  0.00    -0.338 OA
ATOM     19  C   LIG d   1      -1.431  -1.639  -4.559  0.00  0.00    -0.047 A 
ATOM     20  C   LIG d   1      -1.574  -1.556  -5.925  0.00  0.00    -0.048 A 
ATOM     21  H   LIG d   1      -1.611  -2.538  -4.084  0.00  0.00     0.087 H 
ATOM     22  C   LIG d   1      -1.339  -0.354  -6.577  0.00  0.00     0.067 A 
ATOM     23  H   LIG d   1      -1.856  -2.389  -6.465  0.00  0.00     0.087 H 
ATOM     24  H   LIG d   1      -0.797   1.653  -6.319  0.00  0.00     0.089 H 
ATOM     25  H   LIG d   1      -2.068   0.810  -1.913  0.00  0.00     0.094 H 
BRANCH  12  26
ATOM     26  C   LIG d   1       1.337   0.736  -1.999  0.00  0.00    -0.041 A 
ATOM     27  C   LIG d   1       1.728   0.038  -3.127  0.00  0.00    -0.073 A 
ATOM     28  C   LIG d   1       2.961  -0.582  -3.164  0.00  0.00    -0.051 A 
ATOM     29  H   LIG d   1       1.097  -0.019  -3.942  0.00  0.00     0.084 H 
ATOM     30  C   LIG d   1       3.803  -0.516  -2.063  0.00  0.00     0.065 A 
ATOM     31  H   LIG d   1       3.256  -1.094  -4.010  0.00  0.00     0.087 H 
ATOM     32  C   LIG d   1       3.408   0.184  -0.932  0.00  0.00    -0.051 A 
ATOM     33  C   LIG d   1       2.176   0.808  -0.903  0.00  0.00    -0.073 A 
ATOM     34  H   LIG d   1       4.034   0.238  -0.113  0.00  0.00     0.087 H 
ATOM     35  H   LIG d   1       1.882   1.329  -0.062  0.00  0.00     0.084 H 
BRANCH  30  36
ATOM     36  O   LIG d   1       5.014  -1.131  -2.094  0.00  0.00    -0.361 OA
ATOM     37  H   LIG d   1       5.280  -1.603  -2.858  0.00  0.00     0.217 HD
ENDBRANCH  30  36
ENDBRANCH  12  26
BRANCH  22  38
ATOM     38  O   LIG d   1      -1.469  -0.269  -7.928  0.00  0.00    -0.361 OA
ATOM     39  H   LIG d   1      -1.719  -1.024  -8.423  0.00  0.00     0.217 HD
ENDBRANCH  22  38
ENDBRANCH   1  11
BRANCH   4  40
ATOM     40  O   LIG d   1      -1.003  -1.054   3.760  0.00  0.00    -0.350 OA
BRANCH  40  41
ATOM     41  C   LIG d   1      -1.878  -0.155   4.443  0.00  0.00     0.049 C 
ATOM     42  H   LIG d   1      -2.867  -0.249   4.045  0.00  0.00     0.077 H 
ATOM     43  H   LIG d   1      -1.533   0.849   4.309  0.00  0.00     0.077 H 
BRANCH  41  44
ATOM     44  C   LIG d   1      -1.894  -0.494   5.935  0.00  0.00     0.103 C 
ATOM     45  H   LIG d   1      -2.239  -1.498   6.069  0.00  0.00     0.079 H 
ATOM     46  H   LIG d   1      -2.549   0.180   6.447  0.00  0.00     0.079 H 
BRANCH  44  47
ATOM     47  N   LIG d   1      -0.536  -0.366   6.481  0.00  0.00    -0.069 N 
ATOM     48  C   LIG d   1      -0.176   1.052   6.389  0.00  0.00     0.084 C 
ATOM     49  C   LIG d   1       1.230   1.266   6.949  0.00  0.00    -0.042 C 
ATOM     50  H   LIG d   1      -0.875   1.633   6.953  0.00  0.00     0.076 H 
ATOM     51  H   LIG d   1      -0.198   1.357   5.364  0.00  0.00     0.076 H 
ATOM     52  C   LIG d   1       1.253   0.859   8.426  0.00  0.00    -0.062 C 
ATOM     53  H   LIG d   1       1.498   2.298   6.858  0.00  0.00     0.035 H 
ATOM     54  H   LIG d   1       1.929   0.669   6.401  0.00  0.00     0.035 H 
ATOM     55  C   LIG d   1       0.760  -0.586   8.550  0.00  0.00    -0.042 C 
ATOM     56  H   LIG d   1       0.612   1.507   8.987  0.00  0.00     0.033 H 
ATOM     57  H   LIG d   1       2.249   0.936   8.808  0.00  0.00     0.033 H 
ATOM     58  C   LIG d   1      -0.622  -0.704   7.906  0.00  0.00     0.084 C 
ATOM     59  H   LIG d   1       0.697  -0.855   9.584  0.00  0.00     0.035 H 
ATOM     60  H   LIG d   1       1.444  -1.243   8.054  0.00  0.00     0.035 H 
ATOM     61  H   LIG d   1      -0.979  -1.707   8.012  0.00  0.00     0.076 H 
ATOM     62  H   LIG d   1      -1.296  -0.028   8.390  0.00  0.00     0.076 H 
ATOM     63  H   LIG d   1       0.136  -0.958   5.992  0.00  0.00     0.280 HD
ENDBRANCH  44  47
ENDBRANCH  41  44
ENDBRANCH  40  41
ENDBRANCH   4  40
TORSDOF 8
