@<TRIPOS>MOLECULE
E4D
 63 67 0 0 0
SMALL
GASTEIGER

@<TRIPOS>ATOM
      1 C          -0.0050    1.4190   -1.9650 C.3     1  LIG1        0.0760
      2 C          -1.1120    0.3890   -1.6820 C.3     1  LIG1        0.1412
      3 O          -0.8860   -0.7540   -2.4800 O.3     1  LIG1       -0.4817
      4 C          -1.0460   -0.5270   -3.8020 C.ar    1  LIG1        0.1350
      5 C          -1.4310   -1.6390   -4.5590 C.ar    1  LIG1       -0.0154
      6 C          -1.5740   -1.5560   -5.9250 C.ar    1  LIG1       -0.0167
      7 C          -1.3390   -0.3540   -6.5770 C.ar    1  LIG1        0.1181
      8 O          -1.4690   -0.2690   -7.9280 O.3     1  LIG1       -0.5067
      9 C          -0.9700    0.7560   -5.8400 C.ar    1  LIG1       -0.0032
     10 C          -0.8300    0.6750   -4.4560 C.ar    1  LIG1        0.0537
     11 S          -0.3760    2.1460   -3.5900 S.3     1  LIG1       -0.1094
     12 C           1.3370    0.7360   -1.9990 C.ar    1  LIG1       -0.0301
     13 C           1.7280    0.0380   -3.1270 C.ar    1  LIG1       -0.0539
     14 C           2.9610   -0.5820   -3.1640 C.ar    1  LIG1       -0.0199
     15 C           3.8030   -0.5160   -2.0630 C.ar    1  LIG1        0.1169
     16 O           5.0140   -1.1310   -2.0940 O.3     1  LIG1       -0.5068
     17 C           3.4080    0.1840   -0.9320 C.ar    1  LIG1       -0.0199
     18 C           2.1760    0.8080   -0.9030 C.ar    1  LIG1       -0.0539
     19 C          -1.0830    0.0030   -0.2260 C.ar    1  LIG1       -0.0057
     20 C          -1.8380    0.7100    0.6900 C.ar    1  LIG1       -0.0516
     21 C          -1.8170    0.3540    2.0250 C.ar    1  LIG1       -0.0196
     22 C          -1.0290   -0.7060    2.4460 C.ar    1  LIG1        0.1208
     23 C          -0.2680   -1.4100    1.5250 C.ar    1  LIG1       -0.0196
     24 C          -0.2960   -1.0540    0.1910 C.ar    1  LIG1       -0.0516
     25 O          -1.0030   -1.0540    3.7600 O.3     1  LIG1       -0.4867
     26 C          -1.8780   -0.1550    4.4430 C.3     1  LIG1        0.1291
     27 C          -1.8940   -0.4940    5.9350 C.3     1  LIG1        0.0031
     28 N          -0.5360   -0.3660    6.4810 N.4     1  LIG1        0.2376
     29 C          -0.1760    1.0520    6.3890 C.3     1  LIG1       -0.0318
     30 C           1.2300    1.2660    6.9490 C.3     1  LIG1       -0.0123
     31 C           1.2530    0.8590    8.4260 C.3     1  LIG1       -0.0434
     32 C           0.7600   -0.5860    8.5500 C.3     1  LIG1       -0.0123
     33 C          -0.6220   -0.7040    7.9060 C.3     1  LIG1       -0.0318
     34 H           0.0289    2.1705   -1.2041 H       1  LIG1        0.0504
     35 H          -2.0680    0.8102   -1.9132 H       1  LIG1        0.0799
     36 H          -1.6109   -2.5375   -4.0843 H       1  LIG1        0.0656
     37 H          -1.8564   -2.3888   -6.4652 H       1  LIG1        0.0655
     38 H          -1.7193   -1.0242   -8.4230 H       1  LIG1        0.2921
     39 H          -0.7966    1.6532   -6.3195 H       1  LIG1        0.0666
     40 H           1.0975   -0.0195   -3.9419 H       1  LIG1        0.0622
     41 H           3.2563   -1.0942   -4.0099 H       1  LIG1        0.0654
     42 H           5.2801   -1.6035   -2.8581 H       1  LIG1        0.2921
     43 H           4.0340    0.2384   -0.1133 H       1  LIG1        0.0654
     44 H           1.8816    1.3286   -0.0620 H       1  LIG1        0.0622
     45 H          -2.4178    1.5043    0.3770 H       1  LIG1        0.0623
     46 H          -2.3874    0.8767    2.7080 H       1  LIG1        0.0654
     47 H           0.3190   -2.1996    1.8364 H       1  LIG1        0.0654
     48 H           0.2707   -1.5772   -0.4946 H       1  LIG1        0.0623
     49 H          -2.8669   -0.2486    4.0453 H       1  LIG1        0.0751
     50 H          -1.5334    0.8491    4.3090 H       1  LIG1        0.0751
     51 H          -2.2391   -1.4979    6.0690 H       1  LIG1        0.0848
     52 H          -2.5491    0.1797    6.4468 H       1  LIG1        0.0848
     53 H           0.1355   -0.9578    5.9920 H       1  LIG1        0.2034
     54 H          -0.8753    1.6334    6.9527 H       1  LIG1        0.0814
     55 H          -0.1982    1.3566    5.3635 H       1  LIG1        0.0814
     56 H           1.4979    2.2979    6.8582 H       1  LIG1        0.0317
     57 H           1.9291    0.6691    6.4014 H       1  LIG1        0.0317
     58 H           0.6121    1.5066    8.9871 H       1  LIG1        0.0269
     59 H           2.2495    0.9362    8.8079 H       1  LIG1        0.0269
     60 H           0.6970   -0.8550    9.5837 H       1  LIG1        0.0317
     61 H           1.4443   -1.2426    8.0544 H       1  LIG1        0.0317
     62 H          -0.9791   -1.7070    8.0124 H       1  LIG1        0.0814
     63 H          -1.2963   -0.0284    8.3896 H       1  LIG1        0.0814
@<TRIPOS>BOND
     1     1     2    1
     2     1    11    1
     3     1    12    1
     4     2     3    1
     5     2    19    1
     6     3     4    1
     7     4     5   ar
     8     4    10   ar
     9     5     6   ar
    10     6     7   ar
    11     7     8    1
    12     7     9   ar
    13     9    10   ar
    14    10    11    1
    15    12    13   ar
    16    12    18   ar
    17    13    14   ar
    18    14    15   ar
    19    15    16    1
    20    15    17   ar
    21    17    18   ar
    22    19    20   ar
    23    19    24   ar
    24    20    21   ar
    25    21    22   ar
    26    22    23   ar
    27    22    25    1
    28    23    24   ar
    29    25    26    1
    30    26    27    1
    31    27    28    1
    32    28    29    1
    33    28    33    1
    34    29    30    1
    35    30    31    1
    36    31    32    1
    37    32    33    1
    38     1    34    1
    39     2    35    1
    40     5    36    1
    41     6    37    1
    42     8    38    1
    43     9    39    1
    44    13    40    1
    45    14    41    1
    46    16    42    1
    47    17    43    1
    48    18    44    1
    49    20    45    1
    50    21    46    1
    51    23    47    1
    52    24    48    1
    53    26    49    1
    54    26    50    1
    55    27    51    1
    56    27    52    1
    57    28    53    1
    58    29    54    1
    59    29    55    1
    60    30    56    1
    61    30    57    1
    62    31    58    1
    63    31    59    1
    64    32    60    1
    65    32    61    1
    66    33    62    1
    67    33    63    1
