@<TRIPOS>MOLECULE
EED
 51 54 0 0 0
SMALL
GASTEIGER

@<TRIPOS>ATOM
      1 C          -0.3110    0.3260    0.7670 C.3     1  LIG1       -0.0076
      2 C          -1.7860    0.3100    0.5040 C.ar    1  LIG1       -0.0403
      3 C          -2.5660   -0.6340    1.1610 C.ar    1  LIG1       -0.0546
      4 C          -3.9250   -0.7070    0.9390 C.ar    1  LIG1       -0.0199
      5 C          -4.5260    0.1780    0.0570 C.ar    1  LIG1        0.1171
      6 O          -5.8610    0.1020   -0.1840 O.3     1  LIG1       -0.5068
      7 C          -3.7570    1.1380   -0.5770 C.ar    1  LIG1       -0.0167
      8 C          -2.3920    1.2180   -0.3420 C.ar    1  LIG1       -0.0404
      9 C          -1.6320    2.3330   -1.0140 C.3     1  LIG1       -0.0270
     10 C          -0.2830    2.5530   -0.3260 C.3     1  LIG1       -0.0454
     11 C           0.4280    1.2000   -0.2570 C.3     1  LIG1       -0.0302
     12 C           1.8300    1.3240    0.2740 C.3     1  LIG1       -0.0298
     13 C           2.8250    2.2180   -0.4690 C.3     1  LIG1       -0.0470
     14 C           4.1710    1.7730    0.1740 C.3     1  LIG1       -0.0261
     15 C           3.9510    0.3220    0.6730 C.3     1  LIG1        0.0609
     16 O           4.9040   -0.5610    0.0830 O.3     1  LIG1       -0.3912
     17 C           2.5330   -0.0520    0.2000 C.3     1  LIG1       -0.0027
     18 C           2.6580   -0.5440   -1.2430 C.3     1  LIG1       -0.0569
     19 C           1.8120   -1.0620    1.0510 C.3     1  LIG1       -0.0395
     20 C           0.2960   -1.0600    0.8560 C.3     1  LIG1       -0.0099
     21 C          -0.1060   -1.9050   -0.3520 C.3     1  LIG1        0.0507
     22 O           0.4110   -3.2290   -0.2010 O.3     1  LIG1       -0.3827
     23 C           0.0900   -4.1050   -1.2840 C.3     1  LIG1        0.0365
     24 H          -0.1842    0.7655    1.7343 H       1  LIG1        0.0355
     25 H          -2.1224   -1.2890    1.8237 H       1  LIG1        0.0622
     26 H          -4.4924   -1.4174    1.4273 H       1  LIG1        0.0654
     27 H          -6.3786   -0.5493    0.2471 H       1  LIG1        0.2921
     28 H          -4.2029    1.8005   -1.2306 H       1  LIG1        0.0657
     29 H          -2.2065    3.2340   -0.9587 H       1  LIG1        0.0313
     30 H          -1.4598    2.0674   -2.0361 H       1  LIG1        0.0313
     31 H          -0.4353    2.9358    0.6615 H       1  LIG1        0.0271
     32 H           0.3064    3.2595   -0.8723 H       1  LIG1        0.0271
     33 H           0.4421    0.7958   -1.2476 H       1  LIG1        0.0310
     34 H           1.6419    1.7461    1.2391 H       1  LIG1        0.0310
     35 H           2.6293    3.2548   -0.2909 H       1  LIG1        0.0269
     36 H           2.7935    2.1192   -1.5340 H       1  LIG1        0.0269
     37 H           4.4205    2.4137    0.9939 H       1  LIG1        0.0290
     38 H           4.9761    1.8265   -0.5287 H       1  LIG1        0.0290
     39 H           4.0634    0.2461    1.7344 H       1  LIG1        0.0599
     40 H           4.8300   -0.5178   -0.8832 H       1  LIG1        0.2098
     41 H           3.1731    0.1900   -1.8267 H       1  LIG1        0.0236
     42 H           1.6819   -0.7036   -1.6512 H       1  LIG1        0.0236
     43 H           3.2064   -1.4626   -1.2604 H       1  LIG1        0.0236
     44 H           2.0206   -0.8484    2.0785 H       1  LIG1        0.0275
     45 H           2.1639   -2.0282    0.7551 H       1  LIG1        0.0275
     46 H          -0.1074   -1.5025    1.7428 H       1  LIG1        0.0329
     47 H           0.2925   -1.4660   -1.2427 H       1  LIG1        0.0562
     48 H          -1.1731   -1.9446   -0.4202 H       1  LIG1        0.0562
     49 H           0.5100   -5.0713   -1.0976 H       1  LIG1        0.0523
     50 H           0.4928   -3.7104   -2.1934 H       1  LIG1        0.0523
     51 H          -0.9731   -4.1891   -1.3717 H       1  LIG1        0.0523
@<TRIPOS>BOND
     1     1    20    1
     2     1    11    1
     3     1     2    1
     4     2     3   ar
     5     2     8   ar
     6     3     4   ar
     7     4     5   ar
     8     5     7   ar
     9     5     6    1
    10     7     8   ar
    11     8     9    1
    12     9    10    1
    13    10    11    1
    14    11    12    1
    15    12    17    1
    16    12    13    1
    17    13    14    1
    18    14    15    1
    19    15    16    1
    20    15    17    1
    21    17    19    1
    22    17    18    1
    23    19    20    1
    24    20    21    1
    25    21    22    1
    26    22    23    1
    27     1    24    1
    28     3    25    1
    29     4    26    1
    30     6    27    1
    31     7    28    1
    32     9    29    1
    33     9    30    1
    34    10    31    1
    35    10    32    1
    36    11    33    1
    37    12    34    1
    38    13    35    1
    39    13    36    1
    40    14    37    1
    41    14    38    1
    42    15    39    1
    43    16    40    1
    44    18    41    1
    45    18    42    1
    46    18    43    1
    47    19    44    1
    48    19    45    1
    49    20    46    1
    50    21    47    1
    51    21    48    1
    52    23    49    1
    53    23    50    1
    54    23    51    1
