REMARK  6 active torsions:
REMARK  status: ('A' for Active; 'I' for Inactive)
REMARK    1  A    between atoms: C_5  and  O_6 
REMARK    2  A    between atoms: C_15  and  O_16 
REMARK    3  A    between atoms: C_17  and  C_18 
REMARK    4  A    between atoms: C_20  and  C_21 
REMARK    5  A    between atoms: C_21  and  O_22 
REMARK    6  A    between atoms: O_22  and  C_23 
ROOT
ATOM      1  C   LIG d   1      -0.311   0.326   0.767  0.00  0.00    -0.019 C 
ATOM      2  C   LIG d   1      -1.786   0.310   0.504  0.00  0.00    -0.047 A 
ATOM      3  C   LIG d   1      -2.566  -0.634   1.161  0.00  0.00    -0.073 A 
ATOM      4  C   LIG d   1      -3.925  -0.707   0.939  0.00  0.00    -0.051 A 
ATOM      5  C   LIG d   1      -4.526   0.178   0.057  0.00  0.00     0.066 A 
ATOM      6  C   LIG d   1      -3.757   1.138  -0.577  0.00  0.00    -0.044 A 
ATOM      7  C   LIG d   1      -2.392   1.218  -0.342  0.00  0.00    -0.049 A 
ATOM      8  C   LIG d   1      -1.632   2.333  -1.014  0.00  0.00    -0.040 C 
ATOM      9  C   LIG d   1      -0.283   2.553  -0.326  0.00  0.00    -0.057 C 
ATOM     10  C   LIG d   1       0.428   1.200  -0.257  0.00  0.00    -0.042 C 
ATOM     11  C   LIG d   1       1.830   1.324   0.274  0.00  0.00    -0.041 C 
ATOM     12  C   LIG d   1       2.825   2.218  -0.469  0.00  0.00    -0.058 C 
ATOM     13  C   LIG d   1       4.171   1.773   0.174  0.00  0.00    -0.040 C 
ATOM     14  C   LIG d   1       3.951   0.322   0.673  0.00  0.00     0.043 C 
ATOM     15  C   LIG d   1       2.533  -0.052   0.200  0.00  0.00    -0.014 C 
ATOM     16  C   LIG d   1       1.812  -1.062   1.051  0.00  0.00    -0.050 C 
ATOM     17  C   LIG d   1       0.296  -1.060   0.856  0.00  0.00    -0.025 C 
ATOM     18  H   LIG d   1      -0.184   0.765   1.734  0.00  0.00     0.048 H 
ATOM     19  H   LIG d   1      -2.122  -1.289   1.824  0.00  0.00     0.084 H 
ATOM     20  H   LIG d   1      -4.492  -1.417   1.427  0.00  0.00     0.087 H 
ATOM     21  H   LIG d   1      -4.203   1.800  -1.231  0.00  0.00     0.088 H 
ATOM     22  H   LIG d   1      -2.207   3.234  -0.959  0.00  0.00     0.040 H 
ATOM     23  H   LIG d   1      -1.460   2.067  -2.036  0.00  0.00     0.040 H 
ATOM     24  H   LIG d   1      -0.435   2.936   0.661  0.00  0.00     0.034 H 
ATOM     25  H   LIG d   1       0.306   3.260  -0.872  0.00  0.00     0.034 H 
ATOM     26  H   LIG d   1       0.442   0.796  -1.248  0.00  0.00     0.041 H 
ATOM     27  H   LIG d   1       1.642   1.746   1.239  0.00  0.00     0.042 H 
ATOM     28  H   LIG d   1       2.629   3.255  -0.291  0.00  0.00     0.033 H 
ATOM     29  H   LIG d   1       2.793   2.119  -1.534  0.00  0.00     0.033 H 
ATOM     30  H   LIG d   1       4.420   2.414   0.994  0.00  0.00     0.036 H 
ATOM     31  H   LIG d   1       4.976   1.827  -0.529  0.00  0.00     0.036 H 
ATOM     32  H   LIG d   1       4.063   0.246   1.734  0.00  0.00     0.084 H 
ATOM     33  H   LIG d   1       2.021  -0.848   2.079  0.00  0.00     0.035 H 
ATOM     34  H   LIG d   1       2.164  -2.028   0.755  0.00  0.00     0.035 H 
ATOM     35  H   LIG d   1      -0.107  -1.502   1.743  0.00  0.00     0.044 H 
ENDROOT
BRANCH  17  36
ATOM     36  C   LIG d   1      -0.106  -1.905  -0.352  0.00  0.00     0.023 C 
ATOM     37  H   LIG d   1       0.292  -1.466  -1.243  0.00  0.00     0.074 H 
ATOM     38  H   LIG d   1      -1.173  -1.945  -0.420  0.00  0.00     0.074 H 
BRANCH  36  39
ATOM     39  O   LIG d   1       0.411  -3.229  -0.201  0.00  0.00    -0.396 OA
BRANCH  39  40
ATOM     40  C   LIG d   1       0.090  -4.105  -1.284  0.00  0.00     0.004 C 
ATOM     41  H   LIG d   1       0.510  -5.071  -1.098  0.00  0.00     0.066 H 
ATOM     42  H   LIG d   1       0.493  -3.710  -2.193  0.00  0.00     0.066 H 
ATOM     43  H   LIG d   1      -0.973  -4.189  -1.372  0.00  0.00     0.066 H 
ENDBRANCH  39  40
ENDBRANCH  36  39
ENDBRANCH  17  36
BRANCH  15  44
ATOM     44  C   LIG d   1       2.658  -0.544  -1.243  0.00  0.00    -0.066 C 
ATOM     45  H   LIG d   1       3.173   0.190  -1.827  0.00  0.00     0.028 H 
ATOM     46  H   LIG d   1       1.682  -0.704  -1.651  0.00  0.00     0.028 H 
ATOM     47  H   LIG d   1       3.206  -1.463  -1.260  0.00  0.00     0.028 H 
ENDBRANCH  15  44
BRANCH  14  48
ATOM     48  O   LIG d   1       4.904  -0.561   0.083  0.00  0.00    -0.395 OA
ATOM     49  H   LIG d   1       4.830  -0.518  -0.883  0.00  0.00     0.210 HD
ENDBRANCH  14  48
BRANCH   5  50
ATOM     50  O   LIG d   1      -5.861   0.102  -0.184  0.00  0.00    -0.361 OA
ATOM     51  H   LIG d   1      -6.379  -0.549   0.247  0.00  0.00     0.217 HD
ENDBRANCH   5  50
TORSDOF 6
