REMARK  5 active torsions:
REMARK  status: ('A' for Active; 'I' for Inactive)
REMARK    1  A    between atoms: C_1  and  C_2 
REMARK    2  A    between atoms: C_2  and  C_3 
REMARK    3  A    between atoms: C_6  and  O_7 
REMARK    4  A    between atoms: N_13  and  C_14 
REMARK    5  A    between atoms: C_17  and  O_18 
ROOT
ATOM      1  C   LIG d   1       0.549  -0.706  -0.100  0.00  0.00     0.047 A 
ATOM      2  C   LIG d   1       1.852  -0.246  -0.082  0.00  0.00     0.019 A 
ATOM      3  C   LIG d   1       3.123  -0.860  -0.108  0.00  0.00    -0.037 A 
ATOM      4  C   LIG d   1       4.242  -0.086  -0.077  0.00  0.00     0.066 A 
ATOM      5  C   LIG d   1       4.166   1.311  -0.018  0.00  0.00    -0.049 A 
ATOM      6  C   LIG d   1       2.976   1.961   0.011  0.00  0.00    -0.052 A 
ATOM      7  C   LIG d   1       1.775   1.222  -0.020  0.00  0.00     0.061 A 
ATOM      8  N   LIG d   1       0.491   1.537  -0.006  0.00  0.00    -0.293 N 
ATOM      9  HN  LIG d   1       0.113   2.484   0.037  1.00  0.00     0.187 HD
ATOM     10  N   LIG d   1      -0.266   0.361  -0.060  0.00  0.00    -0.259 N 
ATOM     11  H   LIG d   1       3.203  -1.888  -0.150  0.00  0.00     0.089 H 
ATOM     12  H   LIG d   1       5.039   1.861   0.004  0.00  0.00     0.087 H 
ATOM     13  H   LIG d   1       2.949   2.992   0.056  0.00  0.00     0.087 H 
ENDROOT
BRANCH  10  14
ATOM     14  C   LIG d   1      -1.667   0.306  -0.069  0.00  0.00     0.056 A 
ATOM     15  C   LIG d   1      -2.399   1.097   0.807  0.00  0.00    -0.053 A 
ATOM     16  C   LIG d   1      -3.778   1.041   0.798  0.00  0.00    -0.049 A 
ATOM     17  H   LIG d   1      -1.912   1.726   1.464  0.00  0.00     0.087 H 
ATOM     18  C   LIG d   1      -4.433   0.196  -0.086  0.00  0.00     0.065 A 
ATOM     19  H   LIG d   1      -4.322   1.628   1.449  0.00  0.00     0.087 H 
ATOM     20  C   LIG d   1      -3.702  -0.595  -0.962  0.00  0.00    -0.049 A 
ATOM     21  C   LIG d   1      -2.323  -0.536  -0.957  0.00  0.00    -0.053 A 
ATOM     22  H   LIG d   1      -4.189  -1.227  -1.617  0.00  0.00     0.087 H 
ATOM     23  H   LIG d   1      -1.779  -1.118  -1.613  0.00  0.00     0.087 H 
BRANCH  18  24
ATOM     24  O   LIG d   1      -5.791   0.142  -0.095  0.00  0.00    -0.361 OA
ATOM     25  H   LIG d   1      -6.285   0.676   0.496  0.00  0.00     0.217 HD
ENDBRANCH  18  24
ENDBRANCH  10  14
BRANCH   1  26
ATOM     26  C   LIG d   1       0.118  -2.149  -0.160  0.00  0.00    -0.027 C 
ATOM     27  H   LIG d   1      -0.771  -2.231  -0.750  0.00  0.00     0.041 H 
ATOM     28  H   LIG d   1       0.896  -2.735  -0.603  0.00  0.00     0.041 H 
BRANCH  26  29
ATOM     29  C   LIG d   1      -0.161  -2.658   1.256  0.00  0.00    -0.071 C 
ATOM     30  H   LIG d   1      -0.467  -3.682   1.213  0.00  0.00     0.028 H 
ATOM     31  H   LIG d   1      -0.939  -2.072   1.699  0.00  0.00     0.028 H 
ATOM     32  H   LIG d   1       0.728  -2.576   1.846  0.00  0.00     0.028 H 
ENDBRANCH  26  29
ENDBRANCH   1  26
BRANCH   4  33
ATOM     33  O   LIG d   1       5.463  -0.684  -0.103  0.00  0.00    -0.361 OA
ATOM     34  H   LIG d   1       5.527  -1.618  -0.142  0.00  0.00     0.217 HD
ENDBRANCH   4  33
TORSDOF 5
