@<TRIPOS>MOLECULE
EI1
 33 35 0 0 0
SMALL
GASTEIGER

@<TRIPOS>ATOM
      1 C          -0.1610   -2.6580    1.2560 C.3     1  LIG1       -0.0598
      2 C           0.1180   -2.1490   -0.1600 C.3     1  LIG1       -0.0125
      3 C           0.5490   -0.7060   -0.1000 C.ar    1  LIG1        0.0525
      4 C           1.8520   -0.2460   -0.0820 C.ar    1  LIG1        0.0268
      5 C           3.1230   -0.8600   -0.1080 C.ar    1  LIG1       -0.0092
      6 C           4.2420   -0.0860   -0.0770 C.ar    1  LIG1        0.1176
      7 O           5.4630   -0.6840   -0.1030 O.3     1  LIG1       -0.5067
      8 C           4.1660    1.3110   -0.0180 C.ar    1  LIG1       -0.0181
      9 C           2.9760    1.9610    0.0110 C.ar    1  LIG1       -0.0305
     10 C           1.7750    1.2220   -0.0200 C.ar    1  LIG1        0.0936
     11 N           0.4910    1.5370   -0.0060 N.ar    1  LIG1       -0.1661
     12 N          -0.2660    0.3610   -0.0600 N.ar    1  LIG1       -0.2356
     13 C          -1.6670    0.3060   -0.0690 C.ar    1  LIG1        0.0659
     14 C          -2.3990    1.0970    0.8070 C.ar    1  LIG1       -0.0328
     15 C          -3.7780    1.0410    0.7980 C.ar    1  LIG1       -0.0182
     16 C          -4.4330    0.1960   -0.0860 C.ar    1  LIG1        0.1170
     17 O          -5.7910    0.1420   -0.0950 O.3     1  LIG1       -0.5068
     18 C          -3.7020   -0.5950   -0.9620 C.ar    1  LIG1       -0.0182
     19 C          -2.3230   -0.5360   -0.9570 C.ar    1  LIG1       -0.0328
     20 H          -0.4669   -3.6824    1.2129 H       1  LIG1        0.0233
     21 H          -0.9389   -2.0718    1.6989 H       1  LIG1        0.0233
     22 H           0.7277   -2.5757    1.8462 H       1  LIG1        0.0233
     23 H          -0.7708   -2.2314   -0.7501 H       1  LIG1        0.0326
     24 H           0.8960   -2.7352   -0.6026 H       1  LIG1        0.0326
     25 H           3.2030   -1.8880   -0.1502 H       1  LIG1        0.0661
     26 H           5.5265   -1.6180   -0.1425 H       1  LIG1        0.2921
     27 H           5.0391    1.8608    0.0040 H       1  LIG1        0.0655
     28 H           2.9494    2.9917    0.0555 H       1  LIG1        0.0641
     29 H          -1.9121    1.7263    1.4643 H       1  LIG1        0.0640
     30 H          -4.3222    1.6281    1.4493 H       1  LIG1        0.0655
     31 H          -6.2850    0.6756    0.4959 H       1  LIG1        0.2921
     32 H          -4.1894   -1.2267   -1.6165 H       1  LIG1        0.0655
     33 H          -1.7794   -1.1179   -1.6135 H       1  LIG1        0.0640
@<TRIPOS>BOND
     1     1     2    1
     2     2     3    1
     3     3    12   ar
     4     3     4   ar
     5     4    10   ar
     6     4     5   ar
     7     5     6   ar
     8     6     8   ar
     9     6     7    1
    10     8     9   ar
    11     9    10   ar
    12    10    11   ar
    13    11    12   ar
    14    12    13    1
    15    13    14   ar
    16    13    19   ar
    17    14    15   ar
    18    15    16   ar
    19    16    17    1
    20    16    18   ar
    21    18    19   ar
    22     1    20    1
    23     1    21    1
    24     1    22    1
    25     2    23    1
    26     2    24    1
    27     5    25    1
    28     7    26    1
    29     8    27    1
    30     9    28    1
    31    14    29    1
    32    15    30    1
    33    17    31    1
    34    18    32    1
    35    19    33    1
