@<TRIPOS>MOLECULE
ESE
 40 42 0 0 0
SMALL
GASTEIGER

@<TRIPOS>ATOM
      1 C          -3.3610    1.1890    0.5680 C.ar    1  LIG1       -0.0199
      2 C          -4.3830    0.3570    0.1330 C.ar    1  LIG1        0.1169
      3 C          -4.0810   -0.8810   -0.4150 C.ar    1  LIG1       -0.0199
      4 C          -2.7640   -1.2830   -0.5270 C.ar    1  LIG1       -0.0549
      5 C          -1.7480   -0.4520   -0.0930 C.ar    1  LIG1       -0.0440
      6 C          -2.0460    0.7850    0.4480 C.ar    1  LIG1       -0.0549
      7 C          -0.3120   -0.8930   -0.2160 C.3     1  LIG1       -0.0156
      8 C           0.4560    0.0970   -1.0880 C.3     1  LIG1       -0.0428
      9 C           1.9080   -0.3500   -1.2670 C.3     1  LIG1       -0.0327
     10 C           2.5780   -0.5740    0.1010 C.3     1  LIG1       -0.0032
     11 C           1.7540   -1.4320    1.0330 C.3     1  LIG1       -0.0445
     12 C           0.3350   -0.9320    1.1730 C.3     1  LIG1       -0.0456
     13 C           2.6910    0.8850   -1.8020 C.3     1  LIG1       -0.0473
     14 C           2.8780    1.7740   -0.5530 C.3     1  LIG1       -0.0261
     15 C           2.7990    0.8350    0.6680 C.3     1  LIG1        0.0609
     16 C           3.9380   -1.2400   -0.1160 C.3     1  LIG1       -0.0570
     17 O          -5.6780    0.7540    0.2450 O.3     1  LIG1       -0.5068
     18 O           4.0220    0.8820    1.4060 O.3     1  LIG1       -0.3912
     19 H          -3.5835    2.1084    0.9806 H       1  LIG1        0.0654
     20 H          -4.8396   -1.5013   -0.7388 H       1  LIG1        0.0654
     21 H          -2.5386   -2.2039   -0.9347 H       1  LIG1        0.0622
     22 H          -1.2849    1.4070    0.7624 H       1  LIG1        0.0622
     23 H          -0.2827   -1.8666   -0.6589 H       1  LIG1        0.0349
     24 H           0.4403    1.0603   -0.6224 H       1  LIG1        0.0274
     25 H          -0.0106    0.1408   -2.0499 H       1  LIG1        0.0274
     26 H           1.9184   -1.2248   -1.8831 H       1  LIG1        0.0307
     27 H           1.7302   -2.4307    0.6496 H       1  LIG1        0.0272
     28 H           2.2101   -1.3940    2.0002 H       1  LIG1        0.0272
     29 H           0.3397    0.0510    1.5957 H       1  LIG1        0.0271
     30 H          -0.2195   -1.5841    1.8151 H       1  LIG1        0.0271
     31 H           2.1271    1.3973   -2.5533 H       1  LIG1        0.0269
     32 H           3.6195    0.6180   -2.2619 H       1  LIG1        0.0269
     33 H           2.1032    2.5103   -0.5039 H       1  LIG1        0.0290
     34 H           3.8137    2.2920   -0.5831 H       1  LIG1        0.0290
     35 H           2.0113    1.1203    1.3336 H       1  LIG1        0.0599
     36 H           3.7943   -2.2238   -0.5115 H       1  LIG1        0.0236
     37 H           4.4572   -1.3032    0.8175 H       1  LIG1        0.0236
     38 H           4.5137   -0.6589   -0.8057 H       1  LIG1        0.0236
     39 H          -5.8813    1.5904    0.6153 H       1  LIG1        0.2921
     40 H           4.7583    0.6276    0.8281 H       1  LIG1        0.2098
@<TRIPOS>BOND
     1     1     2   ar
     2     2    17    1
     3     2     3   ar
     4     4     3   ar
     5     5     4   ar
     6     6     1   ar
     7     6     5   ar
     8     7     5    1
     9     8     7    1
    10     9     8    1
    11     9    10    1
    12    10    16    1
    13    11    12    1
    14    11    10    1
    15    12     7    1
    16    13     9    1
    17    14    13    1
    18    14    15    1
    19    15    18    1
    20    15    10    1
    21     1    19    1
    22     3    20    1
    23     4    21    1
    24     6    22    1
    25     7    23    1
    26     8    24    1
    27     8    25    1
    28     9    26    1
    29    11    27    1
    30    11    28    1
    31    12    29    1
    32    12    30    1
    33    13    31    1
    34    13    32    1
    35    14    33    1
    36    14    34    1
    37    15    35    1
    38    16    36    1
    39    16    37    1
    40    16    38    1
    41    17    39    1
    42    18    40    1
