REMARK  4 active torsions:
REMARK  status: ('A' for Active; 'I' for Inactive)
REMARK    1  A    between atoms: C_2  and  O_17 
REMARK    2  A    between atoms: C_7  and  C_5 
REMARK    3  A    between atoms: C_10  and  C_16 
REMARK    4  A    between atoms: C_15  and  O_18 
ROOT
ATOM      1  C   LIG d   1      -0.312  -0.893  -0.216  0.00  0.00    -0.028 C 
ATOM      2  C   LIG d   1       0.456   0.097  -1.088  0.00  0.00    -0.054 C 
ATOM      3  C   LIG d   1       1.908  -0.350  -1.267  0.00  0.00    -0.044 C 
ATOM      4  C   LIG d   1       2.578  -0.574   0.101  0.00  0.00    -0.014 C 
ATOM      5  C   LIG d   1       1.754  -1.432   1.033  0.00  0.00    -0.055 C 
ATOM      6  C   LIG d   1       0.335  -0.932   1.173  0.00  0.00    -0.057 C 
ATOM      7  C   LIG d   1       2.691   0.885  -1.802  0.00  0.00    -0.059 C 
ATOM      8  C   LIG d   1       2.878   1.774  -0.553  0.00  0.00    -0.040 C 
ATOM      9  C   LIG d   1       2.799   0.835   0.668  0.00  0.00     0.043 C 
ATOM     10  H   LIG d   1      -0.283  -1.867  -0.659  0.00  0.00     0.047 H 
ATOM     11  H   LIG d   1       0.440   1.060  -0.622  0.00  0.00     0.034 H 
ATOM     12  H   LIG d   1      -0.011   0.141  -2.050  0.00  0.00     0.034 H 
ATOM     13  H   LIG d   1       1.918  -1.225  -1.883  0.00  0.00     0.041 H 
ATOM     14  H   LIG d   1       1.730  -2.431   0.650  0.00  0.00     0.034 H 
ATOM     15  H   LIG d   1       2.210  -1.394   2.000  0.00  0.00     0.034 H 
ATOM     16  H   LIG d   1       0.340   0.051   1.596  0.00  0.00     0.034 H 
ATOM     17  H   LIG d   1      -0.220  -1.584   1.815  0.00  0.00     0.034 H 
ATOM     18  H   LIG d   1       2.127   1.397  -2.553  0.00  0.00     0.033 H 
ATOM     19  H   LIG d   1       3.619   0.618  -2.262  0.00  0.00     0.033 H 
ATOM     20  H   LIG d   1       2.103   2.510  -0.504  0.00  0.00     0.036 H 
ATOM     21  H   LIG d   1       3.814   2.292  -0.583  0.00  0.00     0.036 H 
ATOM     22  H   LIG d   1       2.011   1.120   1.334  0.00  0.00     0.084 H 
ENDROOT
BRANCH   1  23
ATOM     23  C   LIG d   1      -1.748  -0.452  -0.093  0.00  0.00    -0.054 A 
ATOM     24  C   LIG d   1      -2.764  -1.283  -0.527  0.00  0.00    -0.074 A 
ATOM     25  C   LIG d   1      -4.081  -0.881  -0.415  0.00  0.00    -0.051 A 
ATOM     26  H   LIG d   1      -2.539  -2.204  -0.935  0.00  0.00     0.084 H 
ATOM     27  C   LIG d   1      -4.383   0.357   0.133  0.00  0.00     0.065 A 
ATOM     28  H   LIG d   1      -4.840  -1.501  -0.739  0.00  0.00     0.087 H 
ATOM     29  C   LIG d   1      -3.361   1.189   0.568  0.00  0.00    -0.051 A 
ATOM     30  C   LIG d   1      -2.046   0.785   0.448  0.00  0.00    -0.074 A 
ATOM     31  H   LIG d   1      -3.583   2.108   0.981  0.00  0.00     0.087 H 
ATOM     32  H   LIG d   1      -1.285   1.407   0.762  0.00  0.00     0.084 H 
BRANCH  27  33
ATOM     33  O   LIG d   1      -5.678   0.754   0.245  0.00  0.00    -0.361 OA
ATOM     34  H   LIG d   1      -5.881   1.590   0.615  0.00  0.00     0.217 HD
ENDBRANCH  27  33
ENDBRANCH   1  23
BRANCH   4  35
ATOM     35  C   LIG d   1       3.938  -1.240  -0.116  0.00  0.00    -0.066 C 
ATOM     36  H   LIG d   1       3.794  -2.224  -0.511  0.00  0.00     0.028 H 
ATOM     37  H   LIG d   1       4.457  -1.303   0.818  0.00  0.00     0.028 H 
ATOM     38  H   LIG d   1       4.514  -0.659  -0.806  0.00  0.00     0.028 H 
ENDBRANCH   4  35
BRANCH   9  39
ATOM     39  O   LIG d   1       4.022   0.882   1.406  0.00  0.00    -0.395 OA
ATOM     40  H   LIG d   1       4.758   0.628   0.828  0.00  0.00     0.210 HD
ENDBRANCH   9  39
TORSDOF 4
