ESE
  CCTOOLS-0502141146

 40 42  0  0  1  0  0  0  0  0999 V2000
   -3.3610    1.1890    0.5680 C   0  0  0  0  0
   -4.3830    0.3570    0.1330 C   0  0  0  0  0
   -4.0810   -0.8810   -0.4150 C   0  0  0  0  0
   -2.7640   -1.2830   -0.5270 C   0  0  0  0  0
   -1.7480   -0.4520   -0.0930 C   0  0  0  0  0
   -2.0460    0.7850    0.4480 C   0  0  0  0  0
   -0.3120   -0.8930   -0.2160 C   0  0  0  0  0
    0.4560    0.0970   -1.0880 C   0  0  0  0  0
    1.9080   -0.3500   -1.2670 C   0  0  0  0  0
    2.5780   -0.5740    0.1010 C   0  0  0  0  0
    1.7540   -1.4320    1.0330 C   0  0  0  0  0
    0.3350   -0.9320    1.1730 C   0  0  0  0  0
    2.6910    0.8850   -1.8020 C   0  0  0  0  0
    2.8780    1.7740   -0.5530 C   0  0  0  0  0
    2.7990    0.8350    0.6680 C   0  0  0  0  0
    3.9380   -1.2400   -0.1160 C   0  0  0  0  0
   -5.6780    0.7540    0.2450 O   0  0  0  0  0
    4.0220    0.8820    1.4060 O   0  0  0  0  0
   -3.5940    2.1530    0.9950 H   0  0  0  0  0
   -4.8750   -1.5300   -0.7540 H   0  0  0  0  0
   -2.5290   -2.2460   -0.9550 H   0  0  0  0  0
   -1.2500    1.4320    0.7860 H   0  0  0  0  0
   -0.2710   -1.8850   -0.6660 H   0  0  0  0  0
   -0.0230    0.1600   -2.0660 H   0  0  0  0  0
    0.4380    1.0790   -0.6160 H   0  0  0  0  0
    1.9930   -1.2220   -1.9160 H   0  0  0  0  0
    1.7370   -2.4410    0.6220 H   0  0  0  0  0
    2.2220   -1.4560    2.0160 H   0  0  0  0  0
    0.3400    0.0790    1.5800 H   0  0  0  0  0
   -0.2230   -1.5920    1.8360 H   0  0  0  0  0
    3.6580    0.5810   -2.2030 H   0  0  0  0  0
    2.1090    1.4070   -2.5610 H   0  0  0  0  0
    3.8510    2.2640   -0.5850 H   0  0  0  0  0
    2.0850    2.5200   -0.5020 H   0  0  0  0  0
    1.9640    1.1190    1.3080 H   0  0  0  0  0
    4.5650   -0.5950   -0.7320 H   0  0  0  0  0
    4.4210   -1.4030    0.8480 H   0  0  0  0  0
    3.7980   -2.1970   -0.6180 H   0  0  0  0  0
   -6.0100    1.2360   -0.5250 H   0  0  0  0  0
    4.2320    1.7560    1.7630 H   0  0  0  0  0
  1  2  1  0  0  0
  1 19  1  0  0  0
  2 17  1  0  0  0
  2  3  2  0  0  0
  3 20  1  0  0  0
  4  3  1  0  0  0
  4 21  1  0  0  0
  5  4  2  0  0  0
  6  1  2  0  0  0
  6  5  1  0  0  0
  6 22  1  0  0  0
  7  5  1  0  0  0
  7 23  1  0  0  0
  8  7  1  0  0  0
  8 24  1  0  0  0
  8 25  1  0  0  0
  9  8  1  0  0  0
  9 10  1  0  0  0
  9 26  1  0  0  0
 10 16  1  0  0  0
 11 12  1  0  0  0
 11 10  1  0  0  0
 11 27  1  0  0  0
 11 28  1  0  0  0
 12  7  1  0  0  0
 12 29  1  0  0  0
 12 30  1  0  0  0
 13  9  1  0  0  0
 13 31  1  0  0  0
 13 32  1  0  0  0
 14 13  1  0  0  0
 14 15  1  0  0  0
 14 33  1  0  0  0
 14 34  1  0  0  0
 15 18  1  0  0  0
 15 10  1  0  0  0
 15 35  1  0  0  0
 16 36  1  0  0  0
 16 37  1  0  0  0
 16 38  1  0  0  0
 17 39  1  0  0  0
 18 40  1  0  0  0
M  END
$$$$
