REMARK  4 active torsions:
REMARK  status: ('A' for Active; 'I' for Inactive)
REMARK    1  A    between atoms: C_4  and  C_5 
REMARK    2  A    between atoms: C_6  and  O_7 
REMARK    3  A    between atoms: C_8  and  O_9 
REMARK    4  A    between atoms: C_17  and  O_18 
ROOT
ATOM      1  C   LIG d   1       0.543   0.365   0.712  0.00  0.00    -0.024 C 
ATOM      2  C   LIG d   1       0.025   1.764   0.413  0.00  0.00    -0.057 C 
ATOM      3  C   LIG d   1      -1.482   1.863   0.717  0.00  0.00    -0.055 C 
ATOM      4  C   LIG d   1      -2.186   0.804  -0.105  0.00  0.00    -0.011 C 
ATOM      5  C   LIG d   1      -3.698   0.700   0.056  0.00  0.00     0.067 C 
ATOM      6  C   LIG d   1      -4.038  -0.811  -0.146  0.00  0.00     0.061 C 
ATOM      7  C   LIG d   1      -2.677  -1.543  -0.303  0.00  0.00    -0.034 C 
ATOM      8  C   LIG d   1      -1.692  -0.588   0.379  0.00  0.00    -0.038 C 
ATOM      9  C   LIG d   1      -0.246  -0.703  -0.058  0.00  0.00    -0.042 C 
ATOM     10  C   LIG d   1       0.362  -2.065   0.275  0.00  0.00    -0.057 C 
ATOM     11  C   LIG d   1       1.738  -2.147  -0.387  0.00  0.00    -0.040 C 
ATOM     12  C   LIG d   1       2.554  -0.913  -0.106  0.00  0.00    -0.049 A 
ATOM     13  C   LIG d   1       3.916  -0.969  -0.370  0.00  0.00    -0.044 A 
ATOM     14  C   LIG d   1       4.724   0.131  -0.144  0.00  0.00     0.066 A 
ATOM     15  C   LIG d   1       4.167   1.302   0.351  0.00  0.00    -0.051 A 
ATOM     16  C   LIG d   1       2.816   1.356   0.617  0.00  0.00    -0.073 A 
ATOM     17  C   LIG d   1       2.004   0.231   0.392  0.00  0.00    -0.047 A 
ATOM     18  H   LIG d   1       0.406   0.210   1.762  0.00  0.00     0.048 H 
ATOM     19  H   LIG d   1       0.190   1.986  -0.621  0.00  0.00     0.034 H 
ATOM     20  H   LIG d   1       0.547   2.464   1.031  0.00  0.00     0.034 H 
ATOM     21  H   LIG d   1      -1.845   2.833   0.450  0.00  0.00     0.034 H 
ATOM     22  H   LIG d   1      -1.665   1.712   1.760  0.00  0.00     0.034 H 
ATOM     23  H   LIG d   1      -4.031   1.053   1.010  0.00  0.00     0.088 H 
ATOM     24  H   LIG d   1      -4.663  -0.971  -0.999  0.00  0.00     0.086 H 
ATOM     25  H   LIG d   1      -2.430  -1.678  -1.335  0.00  0.00     0.037 H 
ATOM     26  H   LIG d   1      -2.675  -2.525   0.121  0.00  0.00     0.037 H 
ATOM     27  H   LIG d   1      -1.686  -0.786   1.431  0.00  0.00     0.042 H 
ATOM     28  H   LIG d   1      -0.201  -0.577  -1.120  0.00  0.00     0.041 H 
ATOM     29  H   LIG d   1      -0.268  -2.845  -0.100  0.00  0.00     0.034 H 
ATOM     30  H   LIG d   1       0.454  -2.180   1.335  0.00  0.00     0.034 H 
ATOM     31  H   LIG d   1       1.611  -2.247  -1.445  0.00  0.00     0.040 H 
ATOM     32  H   LIG d   1       2.256  -2.993   0.014  0.00  0.00     0.040 H 
ATOM     33  H   LIG d   1       4.330  -1.840  -0.738  0.00  0.00     0.088 H 
ATOM     34  H   LIG d   1       4.762   2.128   0.519  0.00  0.00     0.087 H 
ATOM     35  H   LIG d   1       2.399   2.226   0.983  0.00  0.00     0.084 H 
ENDROOT
BRANCH   4  36
ATOM     36  C   LIG d   1      -1.839   0.986  -1.584  0.00  0.00    -0.066 C 
ATOM     37  H   LIG d   1      -2.180   1.945  -1.915  0.00  0.00     0.028 H 
ATOM     38  H   LIG d   1      -2.316   0.220  -2.159  0.00  0.00     0.028 H 
ATOM     39  H   LIG d   1      -0.779   0.921  -1.712  0.00  0.00     0.028 H 
ENDBRANCH   4  36
BRANCH   5  40
ATOM     40  O   LIG d   1      -4.337   1.489  -0.950  0.00  0.00    -0.392 OA
ATOM     41  H   LIG d   1      -4.051   1.188  -1.827  0.00  0.00     0.210 HD
ENDBRANCH   5  40
BRANCH   6  42
ATOM     42  O   LIG d   1      -4.725  -1.296   1.009  0.00  0.00    -0.393 OA
ATOM     43  H   LIG d   1      -4.173  -1.160   1.795  0.00  0.00     0.210 HD
ENDBRANCH   6  42
BRANCH  14  44
ATOM     44  O   LIG d   1       6.056   0.066  -0.406  0.00  0.00    -0.361 OA
ATOM     45  H   LIG d   1       6.430  -0.726  -0.740  0.00  0.00     0.217 HD
ENDBRANCH  14  44
TORSDOF 4
