@<TRIPOS>MOLECULE
ESL
 45 48 0 0 0
SMALL
GASTEIGER

@<TRIPOS>ATOM
      1 C           0.5430    0.3650    0.7120 C.3     1  LIG1       -0.0125
      2 C           0.0250    1.7640    0.4130 C.3     1  LIG1       -0.0454
      3 C          -1.4820    1.8630    0.7170 C.3     1  LIG1       -0.0444
      4 C          -2.1860    0.8040   -0.1050 C.3     1  LIG1       -0.0005
      5 C          -1.8390    0.9860   -1.5840 C.3     1  LIG1       -0.0569
      6 C          -3.6980    0.7000    0.0560 C.3     1  LIG1        0.0867
      7 O          -4.3370    1.4890   -0.9500 O.3     1  LIG1       -0.3887
      8 C          -4.0380   -0.8110   -0.1460 C.3     1  LIG1        0.0819
      9 O          -4.7250   -1.2960    1.0090 O.3     1  LIG1       -0.3892
     10 C          -2.6770   -1.5430   -0.3030 C.3     1  LIG1       -0.0207
     11 C          -1.6920   -0.5880    0.3790 C.3     1  LIG1       -0.0274
     12 C          -0.2460   -0.7030   -0.0580 C.3     1  LIG1       -0.0304
     13 C           0.3620   -2.0650    0.2750 C.3     1  LIG1       -0.0454
     14 C           1.7380   -2.1470   -0.3870 C.3     1  LIG1       -0.0270
     15 C           2.5540   -0.9130   -0.1060 C.ar    1  LIG1       -0.0405
     16 C           3.9160   -0.9690   -0.3700 C.ar    1  LIG1       -0.0167
     17 C           4.7240    0.1310   -0.1440 C.ar    1  LIG1        0.1171
     18 O           6.0560    0.0660   -0.4060 O.3     1  LIG1       -0.5068
     19 C           4.1670    1.3020    0.3510 C.ar    1  LIG1       -0.0199
     20 C           2.8160    1.3560    0.6170 C.ar    1  LIG1       -0.0546
     21 C           2.0040    0.2310    0.3920 C.ar    1  LIG1       -0.0406
     22 H           0.4065    0.2101    1.7619 H       1  LIG1        0.0352
     23 H           0.1902    1.9863   -0.6205 H       1  LIG1        0.0271
     24 H           0.5474    2.4638    1.0313 H       1  LIG1        0.0271
     25 H          -1.8451    2.8334    0.4497 H       1  LIG1        0.0272
     26 H          -1.6654    1.7120    1.7603 H       1  LIG1        0.0272
     27 H          -2.1799    1.9447   -1.9150 H       1  LIG1        0.0236
     28 H          -2.3157    0.2199   -2.1591 H       1  LIG1        0.0236
     29 H          -0.7787    0.9207   -1.7123 H       1  LIG1        0.0236
     30 H          -4.0306    1.0527    1.0099 H       1  LIG1        0.0624
     31 H          -4.0513    1.1882   -1.8268 H       1  LIG1        0.2099
     32 H          -4.6633   -0.9708   -0.9994 H       1  LIG1        0.0619
     33 H          -4.1728   -1.1596    1.7947 H       1  LIG1        0.2099
     34 H          -2.4297   -1.6780   -1.3352 H       1  LIG1        0.0294
     35 H          -2.6748   -2.5252    0.1215 H       1  LIG1        0.0294
     36 H          -1.6857   -0.7856    1.4306 H       1  LIG1        0.0311
     37 H          -0.2011   -0.5771   -1.1196 H       1  LIG1        0.0310
     38 H          -0.2677   -2.8445   -0.1001 H       1  LIG1        0.0271
     39 H           0.4536   -2.1804    1.3348 H       1  LIG1        0.0271
     40 H           1.6107   -2.2474   -1.4446 H       1  LIG1        0.0313
     41 H           2.2560   -2.9932    0.0136 H       1  LIG1        0.0313
     42 H           4.3296   -1.8397   -0.7384 H       1  LIG1        0.0657
     43 H           6.4297   -0.7256   -0.7401 H       1  LIG1        0.2921
     44 H           4.7619    2.1284    0.5191 H       1  LIG1        0.0654
     45 H           2.3987    2.2260    0.9829 H       1  LIG1        0.0622
@<TRIPOS>BOND
     1     1     2    1
     2     1    12    1
     3     1    21    1
     4     2     3    1
     5     3     4    1
     6     4     5    1
     7     4     6    1
     8     4    11    1
     9     6     7    1
    10     6     8    1
    11     8     9    1
    12     8    10    1
    13    10    11    1
    14    11    12    1
    15    12    13    1
    16    13    14    1
    17    14    15    1
    18    15    16   ar
    19    15    21   ar
    20    16    17   ar
    21    17    18    1
    22    17    19   ar
    23    19    20   ar
    24    20    21   ar
    25     1    22    1
    26     2    23    1
    27     2    24    1
    28     3    25    1
    29     3    26    1
    30     5    27    1
    31     5    28    1
    32     5    29    1
    33     6    30    1
    34     7    31    1
    35     8    32    1
    36     9    33    1
    37    10    34    1
    38    10    35    1
    39    11    36    1
    40    12    37    1
    41    13    38    1
    42    13    39    1
    43    14    40    1
    44    14    41    1
    45    16    42    1
    46    18    43    1
    47    19    44    1
    48    20    45    1
