REMARK  3 active torsions:
REMARK  status: ('A' for Active; 'I' for Inactive)
REMARK    1  A    between atoms: C_3  and  O_4 
REMARK    2  A    between atoms: C_14  and  C_20 
REMARK    3  A    between atoms: C_18  and  O_19 
ROOT
ATOM      1  C   LIG d   1       1.463  -0.446  -2.486  0.00  0.00    -0.073 A 
ATOM      2  C   LIG d   1       1.454  -0.154  -3.833  0.00  0.00    -0.051 A 
ATOM      3  C   LIG d   1       0.270   0.232  -4.444  0.00  0.00     0.066 A 
ATOM      4  C   LIG d   1      -0.888   0.328  -3.694  0.00  0.00    -0.044 A 
ATOM      5  C   LIG d   1      -0.877   0.039  -2.336  0.00  0.00    -0.049 A 
ATOM      6  C   LIG d   1      -2.174   0.176  -1.582  0.00  0.00    -0.040 C 
ATOM      7  C   LIG d   1      -2.102  -0.520  -0.223  0.00  0.00    -0.057 C 
ATOM      8  C   LIG d   1      -0.816  -0.077   0.474  0.00  0.00    -0.042 C 
ATOM      9  C   LIG d   1       0.366  -0.702  -0.276  0.00  0.00    -0.024 C 
ATOM     10  C   LIG d   1       0.279  -0.355  -1.733  0.00  0.00    -0.047 A 
ATOM     11  C   LIG d   1       1.695  -0.282   0.332  0.00  0.00    -0.057 C 
ATOM     12  C   LIG d   1       1.744  -0.640   1.830  0.00  0.00    -0.055 C 
ATOM     13  C   LIG d   1       0.570   0.041   2.504  0.00  0.00    -0.014 C 
ATOM     14  C   LIG d   1      -0.732  -0.557   1.906  0.00  0.00    -0.041 C 
ATOM     15  C   LIG d   1      -1.816  -0.070   2.862  0.00  0.00    -0.058 C 
ATOM     16  C   LIG d   1      -1.115   0.074   4.236  0.00  0.00    -0.040 C 
ATOM     17  C   LIG d   1       0.396  -0.241   4.000  0.00  0.00     0.043 C 
ATOM     18  H   LIG d   1       2.342  -0.733  -2.028  0.00  0.00     0.084 H 
ATOM     19  H   LIG d   1       2.324  -0.222  -4.384  0.00  0.00     0.087 H 
ATOM     20  H   LIG d   1      -1.768   0.617  -4.148  0.00  0.00     0.088 H 
ATOM     21  H   LIG d   1      -2.961  -0.265  -2.158  0.00  0.00     0.040 H 
ATOM     22  H   LIG d   1      -2.362   1.217  -1.419  0.00  0.00     0.040 H 
ATOM     23  H   LIG d   1      -2.093  -1.581  -0.360  0.00  0.00     0.034 H 
ATOM     24  H   LIG d   1      -2.953  -0.259   0.371  0.00  0.00     0.034 H 
ATOM     25  H   LIG d   1      -0.800   0.993   0.472  0.00  0.00     0.041 H 
ATOM     26  H   LIG d   1       0.314  -1.766  -0.180  0.00  0.00     0.048 H 
ATOM     27  H   LIG d   1       1.815   0.775   0.219  0.00  0.00     0.034 H 
ATOM     28  H   LIG d   1       2.484  -0.800  -0.172  0.00  0.00     0.034 H 
ATOM     29  H   LIG d   1       2.661  -0.293   2.258  0.00  0.00     0.034 H 
ATOM     30  H   LIG d   1       1.690  -1.700   1.964  0.00  0.00     0.034 H 
ATOM     31  H   LIG d   1      -0.807  -1.622   1.838  0.00  0.00     0.042 H 
ATOM     32  H   LIG d   1      -2.612  -0.783   2.920  0.00  0.00     0.033 H 
ATOM     33  H   LIG d   1      -2.249   0.853   2.537  0.00  0.00     0.033 H 
ATOM     34  H   LIG d   1      -1.532  -0.618   4.938  0.00  0.00     0.036 H 
ATOM     35  H   LIG d   1      -1.247   1.058   4.636  0.00  0.00     0.036 H 
ATOM     36  H   LIG d   1       0.676  -1.237   4.272  0.00  0.00     0.084 H 
ENDROOT
BRANCH  13  37
ATOM     37  C   LIG d   1       0.622   1.550   2.255  0.00  0.00    -0.066 C 
ATOM     38  H   LIG d   1       0.744   1.735   1.208  0.00  0.00     0.028 H 
ATOM     39  H   LIG d   1       1.447   1.972   2.790  0.00  0.00     0.028 H 
ATOM     40  H   LIG d   1      -0.289   1.999   2.593  0.00  0.00     0.028 H 
ENDBRANCH  13  37
BRANCH  17  41
ATOM     41  O   LIG d   1       1.221   0.611   4.796  0.00  0.00    -0.395 OA
ATOM     42  H   LIG d   1       1.016   1.538   4.597  0.00  0.00     0.210 HD
ENDBRANCH  17  41
BRANCH   3  43
ATOM     43  O   LIG d   1       0.249   0.518  -5.772  0.00  0.00    -0.361 OA
ATOM     44  H   LIG d   1       1.035   0.452  -6.278  0.00  0.00     0.217 HD
ENDBRANCH   3  43
TORSDOF 3
