@<TRIPOS>MOLECULE
EST
 44 47 0 0 0
SMALL
GASTEIGER

@<TRIPOS>ATOM
      1 C           1.4630   -0.4460   -2.4860 C.ar    1  LIG1       -0.0546
      2 C           1.4540   -0.1540   -3.8330 C.ar    1  LIG1       -0.0199
      3 C           0.2700    0.2320   -4.4440 C.ar    1  LIG1        0.1171
      4 O           0.2490    0.5180   -5.7720 O.3     1  LIG1       -0.5068
      5 C          -0.8880    0.3280   -3.6940 C.ar    1  LIG1       -0.0167
      6 C          -0.8770    0.0390   -2.3360 C.ar    1  LIG1       -0.0405
      7 C          -2.1740    0.1760   -1.5820 C.3     1  LIG1       -0.0270
      8 C          -2.1020   -0.5200   -0.2230 C.3     1  LIG1       -0.0454
      9 C          -0.8160   -0.0770    0.4740 C.3     1  LIG1       -0.0305
     10 C           0.3660   -0.7020   -0.2760 C.3     1  LIG1       -0.0125
     11 C           0.2790   -0.3550   -1.7330 C.ar    1  LIG1       -0.0406
     12 C           1.6950   -0.2820    0.3320 C.3     1  LIG1       -0.0454
     13 C           1.7440   -0.6400    1.8300 C.3     1  LIG1       -0.0445
     14 C           0.5700    0.0410    2.5040 C.3     1  LIG1       -0.0030
     15 C          -0.7320   -0.5570    1.9060 C.3     1  LIG1       -0.0298
     16 C          -1.8160   -0.0700    2.8620 C.3     1  LIG1       -0.0470
     17 C          -1.1150    0.0740    4.2360 C.3     1  LIG1       -0.0261
     18 C           0.3960   -0.2410    4.0000 C.3     1  LIG1        0.0609
     19 O           1.2210    0.6110    4.7960 O.3     1  LIG1       -0.3912
     20 C           0.6220    1.5500    2.2550 C.3     1  LIG1       -0.0569
     21 H           2.3424   -0.7326   -2.0282 H       1  LIG1        0.0622
     22 H           2.3238   -0.2222   -4.3842 H       1  LIG1        0.0654
     23 H           1.0349    0.4522   -6.2779 H       1  LIG1        0.2921
     24 H          -1.7685    0.6172   -4.1480 H       1  LIG1        0.0657
     25 H          -2.9605   -0.2648   -2.1582 H       1  LIG1        0.0313
     26 H          -2.3619    1.2167   -1.4191 H       1  LIG1        0.0313
     27 H          -2.0926   -1.5812   -0.3598 H       1  LIG1        0.0271
     28 H          -2.9527   -0.2588    0.3711 H       1  LIG1        0.0271
     29 H          -0.8003    0.9929    0.4725 H       1  LIG1        0.0310
     30 H           0.3137   -1.7664   -0.1805 H       1  LIG1        0.0352
     31 H           1.8148    0.7753    0.2191 H       1  LIG1        0.0271
     32 H           2.4838   -0.8001   -0.1722 H       1  LIG1        0.0271
     33 H           2.6614   -0.2933    2.2579 H       1  LIG1        0.0272
     34 H           1.6904   -1.7002    1.9643 H       1  LIG1        0.0272
     35 H          -0.8074   -1.6222    1.8379 H       1  LIG1        0.0310
     36 H          -2.6120   -0.7826    2.9203 H       1  LIG1        0.0269
     37 H          -2.2495    0.8526    2.5368 H       1  LIG1        0.0269
     38 H          -1.5315   -0.6184    4.9375 H       1  LIG1        0.0290
     39 H          -1.2466    1.0578    4.6355 H       1  LIG1        0.0290
     40 H           0.6765   -1.2372    4.2717 H       1  LIG1        0.0599
     41 H           1.0157    1.5379    4.5969 H       1  LIG1        0.2098
     42 H           0.7436    1.7348    1.2081 H       1  LIG1        0.0236
     43 H           1.4474    1.9715    2.7898 H       1  LIG1        0.0236
     44 H          -0.2886    1.9989    2.5930 H       1  LIG1        0.0236
@<TRIPOS>BOND
     1     1     2   ar
     2     1    11   ar
     3     2     3   ar
     4     3     4    1
     5     3     5   ar
     6     5     6   ar
     7     6     7    1
     8     6    11   ar
     9     7     8    1
    10     8     9    1
    11     9    10    1
    12     9    15    1
    13    10    11    1
    14    10    12    1
    15    12    13    1
    16    13    14    1
    17    14    15    1
    18    14    18    1
    19    14    20    1
    20    15    16    1
    21    16    17    1
    22    17    18    1
    23    18    19    1
    24     1    21    1
    25     2    22    1
    26     4    23    1
    27     5    24    1
    28     7    25    1
    29     7    26    1
    30     8    27    1
    31     8    28    1
    32     9    29    1
    33    10    30    1
    34    12    31    1
    35    12    32    1
    36    13    33    1
    37    13    34    1
    38    15    35    1
    39    16    36    1
    40    16    37    1
    41    17    38    1
    42    17    39    1
    43    18    40    1
    44    19    41    1
    45    20    42    1
    46    20    43    1
    47    20    44    1
