REMARK  6 active torsions:
REMARK  status: ('A' for Active; 'I' for Inactive)
REMARK    1  A    between atoms: C_1  and  C_2 
REMARK    2  A    between atoms: C_2  and  C_3 
REMARK    3  A    between atoms: C_10  and  O_11 
REMARK    4  A    between atoms: C_17  and  C_18 
REMARK    5  A    between atoms: C_18  and  C_19 
REMARK    6  A    between atoms: C_21  and  O_22 
ROOT
ATOM      1  C   LIG d   1       0.343   1.903   0.104  0.00  0.00    -0.024 C 
ATOM      2  C   LIG d   1       1.617   1.871   0.945  0.00  0.00    -0.033 C 
ATOM      3  C   LIG d   1      -0.353   0.569   0.144  0.00  0.00    -0.035 C 
ATOM      4  C   LIG d   1       0.352  -0.572   0.157  0.00  0.00    -0.035 C 
ATOM      5  C   LIG d   1       1.824  -0.515   0.189  0.00  0.00    -0.022 A 
ATOM      6  C   LIG d   1       2.591  -1.634  -0.137  0.00  0.00    -0.069 A 
ATOM      7  C   LIG d   1       3.967  -1.556  -0.098  0.00  0.00    -0.050 A 
ATOM      8  C   LIG d   1       4.588  -0.368   0.266  0.00  0.00     0.066 A 
ATOM      9  C   LIG d   1       3.827   0.746   0.601  0.00  0.00    -0.044 A 
ATOM     10  C   LIG d   1       2.452   0.675   0.569  0.00  0.00    -0.044 A 
ATOM     11  C   LIG d   1      -1.825   0.515   0.196  0.00  0.00    -0.022 A 
ATOM     12  C   LIG d   1      -2.454  -0.675   0.575  0.00  0.00    -0.044 A 
ATOM     13  C   LIG d   1      -1.621  -1.870   0.956  0.00  0.00    -0.033 C 
ATOM     14  C   LIG d   1      -0.345  -1.906   0.116  0.00  0.00    -0.024 C 
ATOM     15  C   LIG d   1      -3.829  -0.741   0.614  0.00  0.00    -0.044 A 
ATOM     16  C   LIG d   1      -4.588   0.379   0.299  0.00  0.00     0.066 A 
ATOM     17  C   LIG d   1      -3.966   1.570  -0.053  0.00  0.00    -0.050 A 
ATOM     18  C   LIG d   1      -2.590   1.643  -0.101  0.00  0.00    -0.069 A 
ATOM     19  H   LIG d   1      -0.315   2.647   0.503  0.00  0.00     0.048 H 
ATOM     20  H   LIG d   1       1.356   1.810   1.981  0.00  0.00     0.041 H 
ATOM     21  H   LIG d   1       2.180   2.763   0.765  0.00  0.00     0.041 H 
ATOM     22  H   LIG d   1       2.130  -2.517  -0.406  0.00  0.00     0.085 H 
ATOM     23  H   LIG d   1       4.537  -2.382  -0.340  0.00  0.00     0.087 H 
ATOM     24  H   LIG d   1       4.292   1.626   0.874  0.00  0.00     0.088 H 
ATOM     25  H   LIG d   1      -2.184  -2.764   0.784  0.00  0.00     0.041 H 
ATOM     26  H   LIG d   1      -1.359  -1.800   1.991  0.00  0.00     0.041 H 
ATOM     27  H   LIG d   1       0.311  -2.651   0.516  0.00  0.00     0.048 H 
ATOM     28  H   LIG d   1      -4.296  -1.623   0.877  0.00  0.00     0.088 H 
ATOM     29  H   LIG d   1      -4.534   2.401  -0.279  0.00  0.00     0.087 H 
ATOM     30  H   LIG d   1      -2.127   2.530  -0.356  0.00  0.00     0.085 H 
ENDROOT
BRANCH   1  31
ATOM     31  C   LIG d   1       0.704   2.240  -1.345  0.00  0.00    -0.061 C 
ATOM     32  H   LIG d   1       1.428   1.539  -1.704  0.00  0.00     0.033 H 
ATOM     33  H   LIG d   1      -0.175   2.188  -1.953  0.00  0.00     0.033 H 
BRANCH  31  34
ATOM     34  C   LIG d   1       1.286   3.653  -1.410  0.00  0.00    -0.076 C 
ATOM     35  H   LIG d   1       1.538   3.889  -2.423  0.00  0.00     0.027 H 
ATOM     36  H   LIG d   1       2.165   3.705  -0.802  0.00  0.00     0.027 H 
ATOM     37  H   LIG d   1       0.562   4.354  -1.051  0.00  0.00     0.027 H 
ENDBRANCH  31  34
ENDBRANCH   1  31
BRANCH  14  38
ATOM     38  C   LIG d   1      -0.704  -2.243  -1.332  0.00  0.00    -0.061 C 
ATOM     39  H   LIG d   1       0.174  -2.183  -1.940  0.00  0.00     0.033 H 
ATOM     40  H   LIG d   1      -1.434  -1.547  -1.689  0.00  0.00     0.033 H 
BRANCH  38  41
ATOM     41  C   LIG d   1      -1.275  -3.660  -1.400  0.00  0.00    -0.076 C 
ATOM     42  H   LIG d   1      -0.545  -4.356  -1.043  0.00  0.00     0.027 H 
ATOM     43  H   LIG d   1      -1.526  -3.895  -2.413  0.00  0.00     0.027 H 
ATOM     44  H   LIG d   1      -2.153  -3.720  -0.792  0.00  0.00     0.027 H 
ENDBRANCH  38  41
ENDBRANCH  14  38
BRANCH   8  45
ATOM     45  O   LIG d   1       5.944  -0.295   0.296  0.00  0.00    -0.361 OA
ATOM     46  H   LIG d   1       6.459  -1.045   0.070  0.00  0.00     0.217 HD
ENDBRANCH   8  45
BRANCH  16  47
ATOM     47  O   LIG d   1      -5.945   0.308   0.334  0.00  0.00    -0.361 OA
ATOM     48  H   LIG d   1      -6.366  -0.495   0.571  0.00  0.00     0.217 HD
ENDBRANCH  16  47
TORSDOF 6
