@<TRIPOS>MOLECULE
ETC
 48 51 0 0 0
SMALL
GASTEIGER

@<TRIPOS>ATOM
      1 C           1.2860    3.6530   -1.4100 C.3     1  LIG1       -0.0647
      2 C           0.7040    2.2400   -1.3450 C.3     1  LIG1       -0.0487
      3 C           0.3430    1.9030    0.1040 C.3     1  LIG1       -0.0113
      4 C           1.6170    1.8710    0.9450 C.3     1  LIG1       -0.0201
      5 C          -0.3530    0.5690    0.1440 C.2     1  LIG1       -0.0326
      6 C           0.3520   -0.5720    0.1570 C.2     1  LIG1       -0.0326
      7 C           1.8240   -0.5150    0.1890 C.ar    1  LIG1       -0.0179
      8 C           2.5910   -1.6340   -0.1370 C.ar    1  LIG1       -0.0506
      9 C           3.9670   -1.5560   -0.0980 C.ar    1  LIG1       -0.0196
     10 C           4.5880   -0.3680    0.2660 C.ar    1  LIG1        0.1172
     11 O           5.9440   -0.2950    0.2960 O.3     1  LIG1       -0.5068
     12 C           3.8270    0.7460    0.6010 C.ar    1  LIG1       -0.0164
     13 C           2.4520    0.6750    0.5690 C.ar    1  LIG1       -0.0359
     14 C          -1.8250    0.5150    0.1960 C.ar    1  LIG1       -0.0179
     15 C          -2.4540   -0.6750    0.5750 C.ar    1  LIG1       -0.0359
     16 C          -1.6210   -1.8700    0.9560 C.3     1  LIG1       -0.0201
     17 C          -0.3450   -1.9060    0.1160 C.3     1  LIG1       -0.0113
     18 C          -0.7040   -2.2430   -1.3320 C.3     1  LIG1       -0.0487
     19 C          -1.2750   -3.6600   -1.4000 C.3     1  LIG1       -0.0647
     20 C          -3.8290   -0.7410    0.6140 C.ar    1  LIG1       -0.0164
     21 C          -4.5880    0.3790    0.2990 C.ar    1  LIG1        0.1172
     22 O          -5.9450    0.3080    0.3340 O.3     1  LIG1       -0.5068
     23 C          -3.9660    1.5700   -0.0530 C.ar    1  LIG1       -0.0196
     24 C          -2.5900    1.6430   -0.1010 C.ar    1  LIG1       -0.0506
     25 H           1.5383    3.8886   -2.4228 H       1  LIG1        0.0230
     26 H           2.1650    3.7050   -0.8021 H       1  LIG1        0.0230
     27 H           0.5618    4.3539   -1.0506 H       1  LIG1        0.0230
     28 H           1.4282    1.5391   -1.7044 H       1  LIG1        0.0269
     29 H          -0.1750    2.1880   -1.9529 H       1  LIG1        0.0269
     30 H          -0.3147    2.6465    0.5035 H       1  LIG1        0.0352
     31 H           1.3564    1.8097    1.9810 H       1  LIG1        0.0319
     32 H           2.1796    2.7631    0.7647 H       1  LIG1        0.0319
     33 H           2.1299   -2.5171   -0.4064 H       1  LIG1        0.0625
     34 H           4.5367   -2.3819   -0.3397 H       1  LIG1        0.0654
     35 H           6.4586   -1.0448    0.0705 H       1  LIG1        0.2921
     36 H           4.2922    1.6259    0.8736 H       1  LIG1        0.0657
     37 H          -2.1838   -2.7637    0.7842 H       1  LIG1        0.0319
     38 H          -1.3587   -1.8000    1.9910 H       1  LIG1        0.0319
     39 H           0.3109   -2.6509    0.5157 H       1  LIG1        0.0352
     40 H           0.1742   -2.1830   -1.9403 H       1  LIG1        0.0269
     41 H          -1.4341   -1.5471   -1.6893 H       1  LIG1        0.0269
     42 H          -0.5452   -4.3562   -1.0428 H       1  LIG1        0.0230
     43 H          -1.5262   -3.8951   -2.4132 H       1  LIG1        0.0230
     44 H          -2.1531   -3.7203   -0.7916 H       1  LIG1        0.0230
     45 H          -4.2958   -1.6229    0.8774 H       1  LIG1        0.0657
     46 H          -6.3662   -0.4947    0.5713 H       1  LIG1        0.2921
     47 H          -4.5344    2.4012   -0.2789 H       1  LIG1        0.0654
     48 H          -2.1274    2.5296   -0.3559 H       1  LIG1        0.0625
@<TRIPOS>BOND
     1     1     2    1
     2     2     3    1
     3     3     4    1
     4     3     5    1
     5     4    13    1
     6     5     6    2
     7     5    14    1
     8     6     7    1
     9     6    17    1
    10     7     8   ar
    11     7    13   ar
    12     8     9   ar
    13     9    10   ar
    14    10    11    1
    15    10    12   ar
    16    12    13   ar
    17    14    15   ar
    18    14    24   ar
    19    15    16    1
    20    15    20   ar
    21    16    17    1
    22    17    18    1
    23    18    19    1
    24    20    21   ar
    25    21    22    1
    26    21    23   ar
    27    23    24   ar
    28     1    25    1
    29     1    26    1
    30     1    27    1
    31     2    28    1
    32     2    29    1
    33     3    30    1
    34     4    31    1
    35     4    32    1
    36     8    33    1
    37     9    34    1
    38    11    35    1
    39    12    36    1
    40    16    37    1
    41    16    38    1
    42    17    39    1
    43    18    40    1
    44    18    41    1
    45    19    42    1
    46    19    43    1
    47    19    44    1
    48    20    45    1
    49    22    46    1
    50    23    47    1
    51    24    48    1
