REMARK  6 active torsions:
REMARK  status: ('A' for Active; 'I' for Inactive)
REMARK    1  A    between atoms: C_1  and  C_2 
REMARK    2  A    between atoms: C_9  and  O_10 
REMARK    3  A    between atoms: C_19  and  O_20 
REMARK    4  A    between atoms: C_19  and  C_21 
REMARK    5  A    between atoms: C_22  and  C_23 
REMARK    6  A    between atoms: C_28  and  C_29 
ROOT
ATOM      1  C   LIG d   1       1.069  -6.049   4.180  0.00  0.00    -0.005 C 
ATOM      2  C   LIG d   1       0.939  -4.564   4.561  0.00  0.00    -0.054 C 
ATOM      3  C   LIG d   1       0.606  -3.679   3.344  0.00  0.00    -0.057 C 
ATOM      4  C   LIG d   1       1.573  -3.884   2.148  0.00  0.00    -0.024 C 
ATOM      5  C   LIG d   1       1.255  -3.052   0.908  0.00  0.00    -0.047 A 
ATOM      6  C   LIG d   1       0.694  -1.767   1.019  0.00  0.00    -0.073 A 
ATOM      7  C   LIG d   1       0.440  -0.987  -0.111  0.00  0.00    -0.051 A 
ATOM      8  C   LIG d   1       0.754  -1.469  -1.375  0.00  0.00     0.066 A 
ATOM      9  C   LIG d   1       1.331  -2.729  -1.508  0.00  0.00    -0.044 A 
ATOM     10  C   LIG d   1       1.601  -3.521  -0.378  0.00  0.00    -0.049 A 
ATOM     11  C   LIG d   1       2.211  -4.882  -0.605  0.00  0.00    -0.040 C 
ATOM     12  C   LIG d   1       2.739  -5.545   0.664  0.00  0.00    -0.057 C 
ATOM     13  C   LIG d   1       1.717  -5.395   1.793  0.00  0.00    -0.042 C 
ATOM     14  C   LIG d   1       2.120  -6.164   3.054  0.00  0.00    -0.040 C 
ATOM     15  C   LIG d   1       2.368  -7.667   2.949  0.00  0.00    -0.058 C 
ATOM     16  C   LIG d   1       2.187  -8.198   4.386  0.00  0.00    -0.032 C 
ATOM     17  C   LIG d   1       1.692  -7.004   5.246  0.00  0.00     0.083 C 
ATOM     18  H   LIG d   1       1.865  -4.234   4.984  0.00  0.00     0.034 H 
ATOM     19  H   LIG d   1       0.137  -4.473   5.263  0.00  0.00     0.034 H 
ATOM     20  H   LIG d   1       0.654  -2.654   3.647  0.00  0.00     0.034 H 
ATOM     21  H   LIG d   1      -0.372  -3.957   3.010  0.00  0.00     0.034 H 
ATOM     22  H   LIG d   1       2.515  -3.511   2.491  0.00  0.00     0.048 H 
ATOM     23  H   LIG d   1       0.466  -1.393   1.954  0.00  0.00     0.084 H 
ATOM     24  H   LIG d   1       0.018  -0.051  -0.007  0.00  0.00     0.087 H 
ATOM     25  H   LIG d   1       1.563  -3.086  -2.448  0.00  0.00     0.088 H 
ATOM     26  H   LIG d   1       3.024  -4.776  -1.292  0.00  0.00     0.040 H 
ATOM     27  H   LIG d   1       1.432  -5.511  -0.982  0.00  0.00     0.040 H 
ATOM     28  H   LIG d   1       3.658  -5.078   0.953  0.00  0.00     0.034 H 
ATOM     29  H   LIG d   1       2.906  -6.585   0.475  0.00  0.00     0.034 H 
ATOM     30  H   LIG d   1       0.790  -5.803   1.446  0.00  0.00     0.041 H 
ATOM     31  H   LIG d   1       3.053  -5.677   3.249  0.00  0.00     0.042 H 
ATOM     32  H   LIG d   1       3.360  -7.862   2.597  0.00  0.00     0.033 H 
ATOM     33  H   LIG d   1       1.702  -8.139   2.257  0.00  0.00     0.033 H 
ATOM     34  H   LIG d   1       3.119  -8.563   4.764  0.00  0.00     0.037 H 
ATOM     35  H   LIG d   1       1.486  -9.006   4.411  0.00  0.00     0.037 H 
ENDROOT
BRANCH  17  36
ATOM     36  O   LIG d   1       0.711  -7.448   6.178  0.00  0.00    -0.385 OA
ATOM     37  H   LIG d   1      -0.038  -7.835   5.699  0.00  0.00     0.211 HD
ENDBRANCH  17  36
BRANCH  17  38
ATOM     38  C   LIG d   1       2.827  -6.415   6.038  0.00  0.00    -0.069 C 
ATOM     39  C   LIG d   1       2.840  -6.355   7.379  0.00  0.00    -0.073 C 
ATOM     40  H   LIG d   1       2.025  -6.743   7.879  0.00  0.00     0.084 H 
ATOM     41  H   LIG d   1       3.638  -6.037   5.524  0.00  0.00     0.081 H 
BRANCH  39  42
ATOM     42  C   LIG d   1       3.923  -5.780   8.194  0.00  0.00    -0.021 A 
ATOM     43  C   LIG d   1       3.871  -4.426   8.492  0.00  0.00    -0.072 A 
ATOM     44  C   LIG d   1       4.883  -3.853   9.261  0.00  0.00    -0.082 A 
ATOM     45  H   LIG d   1       3.089  -3.847   8.147  0.00  0.00     0.084 H 
ATOM     46  C   LIG d   1       5.937  -4.641   9.725  0.00  0.00    -0.082 A 
ATOM     47  H   LIG d   1       4.853  -2.846   9.487  0.00  0.00     0.083 H 
ATOM     48  C   LIG d   1       5.979  -6.001   9.418  0.00  0.00    -0.067 A 
ATOM     49  H   LIG d   1       6.686  -4.218  10.295  0.00  0.00     0.083 H 
ATOM     50  C   LIG d   1       4.966  -6.574   8.648  0.00  0.00     0.058 A 
ATOM     51  H   LIG d   1       6.759  -6.583   9.760  0.00  0.00     0.084 H 
BRANCH  50  52
ATOM     52  C   LIG d   1       5.043  -8.035   8.340  0.00  0.00     0.418 C 
ATOM     53  F   LIG d   1       6.141  -8.646   8.874  0.00  0.00    -0.166 F 
ATOM     54  F   LIG d   1       3.975  -8.745   8.804  0.00  0.00    -0.166 F 
ATOM     55  F   LIG d   1       5.098  -8.283   7.000  0.00  0.00    -0.166 F 
ENDBRANCH  50  52
ENDBRANCH  39  42
ENDBRANCH  17  38
BRANCH   1  56
ATOM     56  C   LIG d   1      -0.341  -6.573   3.774  0.00  0.00    -0.066 C 
ATOM     57  H   LIG d   1      -0.768  -5.918   3.043  0.00  0.00     0.028 H 
ATOM     58  H   LIG d   1      -0.972  -6.604   4.637  0.00  0.00     0.028 H 
ATOM     59  H   LIG d   1      -0.251  -7.557   3.362  0.00  0.00     0.028 H 
ENDBRANCH   1  56
BRANCH   8  60
ATOM     60  O   LIG d   1       0.504  -0.712  -2.478  0.00  0.00    -0.361 OA
ATOM     61  H   LIG d   1       0.116   0.136  -2.386  0.00  0.00     0.217 HD
ENDBRANCH   8  60
TORSDOF 6
