@<TRIPOS>MOLECULE
EZT
 61 65 0 0 0
SMALL
GASTEIGER

@<TRIPOS>ATOM
      1 C          -0.3410   -6.5730    3.7740 C.3     1  LIG1       -0.0564
      2 C           1.0690   -6.0490    4.1800 C.3     1  LIG1        0.0034
      3 C           0.9390   -4.5640    4.5610 C.3     1  LIG1       -0.0439
      4 C           0.6060   -3.6790    3.3440 C.3     1  LIG1       -0.0453
      5 C           1.5730   -3.8840    2.1480 C.3     1  LIG1       -0.0125
      6 C           1.2550   -3.0520    0.9080 C.ar    1  LIG1       -0.0406
      7 C           0.6940   -1.7670    1.0190 C.ar    1  LIG1       -0.0546
      8 C           0.4400   -0.9870   -0.1110 C.ar    1  LIG1       -0.0199
      9 C           0.7540   -1.4690   -1.3750 C.ar    1  LIG1        0.1171
     10 O           0.5040   -0.7120   -2.4780 O.3     1  LIG1       -0.5068
     11 C           1.3310   -2.7290   -1.5080 C.ar    1  LIG1       -0.0167
     12 C           1.6010   -3.5210   -0.3780 C.ar    1  LIG1       -0.0405
     13 C           2.2110   -4.8820   -0.6050 C.3     1  LIG1       -0.0270
     14 C           2.7390   -5.5450    0.6640 C.3     1  LIG1       -0.0454
     15 C           1.7170   -5.3950    1.7930 C.3     1  LIG1       -0.0305
     16 C           2.1200   -6.1640    3.0540 C.3     1  LIG1       -0.0292
     17 C           2.3680   -7.6670    2.9490 C.3     1  LIG1       -0.0464
     18 C           2.1870   -8.1980    4.3860 C.3     1  LIG1       -0.0196
     19 C           1.6920   -7.0040    5.2460 C.3     1  LIG1        0.0900
     20 O           0.7110   -7.4480    6.1780 O.3     1  LIG1       -0.3840
     21 C           2.8270   -6.4150    6.0380 C.2     1  LIG1       -0.0518
     22 C           2.8400   -6.3550    7.3790 C.2     1  LIG1       -0.0553
     23 C           3.9230   -5.7800    8.1940 C.ar    1  LIG1       -0.0136
     24 C           3.8710   -4.4260    8.4920 C.ar    1  LIG1       -0.0541
     25 C           4.8830   -3.8530    9.2610 C.ar    1  LIG1       -0.0612
     26 C           5.9370   -4.6410    9.7250 C.ar    1  LIG1       -0.0612
     27 C           5.9790   -6.0010    9.4180 C.ar    1  LIG1       -0.0495
     28 C           4.9660   -6.5740    8.6480 C.ar    1  LIG1        0.0619
     29 C           5.0430   -8.0350    8.3400 C.3     1  LIG1        0.4180
     30 F           6.1410   -8.6460    8.8740 F       1  LIG1       -0.1659
     31 F           3.9750   -8.7450    8.8040 F       1  LIG1       -0.1659
     32 F           5.0980   -8.2830    7.0000 F       1  LIG1       -0.1659
     33 H          -0.7680   -5.9183    3.0433 H       1  LIG1        0.0236
     34 H          -0.9722   -6.6039    4.6374 H       1  LIG1        0.0236
     35 H          -0.2511   -7.5566    3.3625 H       1  LIG1        0.0236
     36 H           1.8648   -4.2343    4.9841 H       1  LIG1        0.0272
     37 H           0.1366   -4.4735    5.2630 H       1  LIG1        0.0272
     38 H           0.6543   -2.6539    3.6470 H       1  LIG1        0.0271
     39 H          -0.3718   -3.9572    3.0101 H       1  LIG1        0.0271
     40 H           2.5155   -3.5113    2.4912 H       1  LIG1        0.0352
     41 H           0.4657   -1.3934    1.9535 H       1  LIG1        0.0622
     42 H           0.0183   -0.0509   -0.0067 H       1  LIG1        0.0654
     43 H           0.1156    0.1358   -2.3862 H       1  LIG1        0.2921
     44 H           1.5635   -3.0862   -2.4479 H       1  LIG1        0.0657
     45 H           3.0240   -4.7759   -1.2925 H       1  LIG1        0.0313
     46 H           1.4321   -5.5114   -0.9820 H       1  LIG1        0.0313
     47 H           3.6576   -5.0782    0.9525 H       1  LIG1        0.0271
     48 H           2.9058   -6.5849    0.4753 H       1  LIG1        0.0271
     49 H           0.7904   -5.8027    1.4465 H       1  LIG1        0.0310
     50 H           3.0528   -5.6774    3.2491 H       1  LIG1        0.0310
     51 H           3.3597   -7.8617    2.5974 H       1  LIG1        0.0269
     52 H           1.7017   -8.1388    2.2573 H       1  LIG1        0.0269
     53 H           3.1191   -8.5629    4.7641 H       1  LIG1        0.0296
     54 H           1.4862   -9.0062    4.4114 H       1  LIG1        0.0296
     55 H          -0.0383   -7.8351    5.6989 H       1  LIG1        0.2106
     56 H           3.6381   -6.0373    5.5236 H       1  LIG1        0.0601
     57 H           2.0250   -6.7433    7.8791 H       1  LIG1        0.0621
     58 H           3.0892   -3.8474    8.1471 H       1  LIG1        0.0624
     59 H           4.8526   -2.8465    9.4870 H       1  LIG1        0.0618
     60 H           6.6856   -4.2175   10.2954 H       1  LIG1        0.0618
     61 H           6.7592   -6.5834    9.7603 H       1  LIG1        0.0623
@<TRIPOS>BOND
     1     1     2    1
     2     2     3    1
     3     2    16    1
     4     2    19    1
     5     3     4    1
     6     4     5    1
     7     5     6    1
     8     5    15    1
     9     6     7   ar
    10     6    12   ar
    11     7     8   ar
    12     8     9   ar
    13     9    10    1
    14     9    11   ar
    15    11    12   ar
    16    12    13    1
    17    13    14    1
    18    14    15    1
    19    15    16    1
    20    16    17    1
    21    17    18    1
    22    18    19    1
    23    19    20    1
    24    19    21    1
    25    21    22    2
    26    22    23    1
    27    23    24   ar
    28    23    28   ar
    29    24    25   ar
    30    25    26   ar
    31    26    27   ar
    32    27    28   ar
    33    28    29    1
    34    29    30    1
    35    29    31    1
    36    29    32    1
    37     1    33    1
    38     1    34    1
    39     1    35    1
    40     3    36    1
    41     3    37    1
    42     4    38    1
    43     4    39    1
    44     5    40    1
    45     7    41    1
    46     8    42    1
    47    10    43    1
    48    11    44    1
    49    13    45    1
    50    13    46    1
    51    14    47    1
    52    14    48    1
    53    15    49    1
    54    16    50    1
    55    17    51    1
    56    17    52    1
    57    18    53    1
    58    18    54    1
    59    20    55    1
    60    21    56    1
    61    22    57    1
    62    24    58    1
    63    25    59    1
    64    26    60    1
    65    27    61    1
