FSV
  CCTOOLS-0502141150

 29 30  0  0  0  0  0  0  0  0999 V2000
   -5.2820   -2.0160    0.0170 O   0  0  0  0  0
   -4.3550   -1.0220    0.0160 C   0  0  0  0  0
   -3.0060   -1.3340    0.0170 C   0  0  0  0  0
   -2.0550   -0.3120    0.0150 C   0  0  0  0  0
   -0.6180   -0.6390    0.0160 C   0  0  0  0  0
    0.2950    0.3460    0.0140 C   0  0  0  0  0
    1.7320    0.0190    0.0150 C   0  0  0  0  0
    2.1470   -1.3160    0.0100 C   0  0  0  0  0
    3.4920   -1.6180    0.0050 C   0  0  0  0  0
    4.4350   -0.5990    0.0040 C   0  0  0  0  0
    5.7600   -0.9020   -0.0010 O   0  0  0  0  0
    4.0280    0.7310    0.0080 C   0  0  0  0  0
    4.9500    1.7190    0.0060 F   0  0  0  0  0
    2.6840    1.0430    0.0130 C   0  0  0  0  0
   -2.4700    1.0220    0.0130 C   0  0  0  0  0
   -3.8210    1.3240    0.0130 C   0  0  0  0  0
   -4.2260    2.6220    0.0100 O   0  0  0  0  0
   -4.7620    0.3050    0.0090 C   0  0  0  0  0
   -5.5470   -2.3070   -0.8660 H   0  0  0  0  0
   -2.6900   -2.3670    0.0190 H   0  0  0  0  0
   -0.2990   -1.6710    0.0170 H   0  0  0  0  0
   -0.0240    1.3780    0.0130 H   0  0  0  0  0
    1.4140   -2.1090    0.0120 H   0  0  0  0  0
    3.8130   -2.6490    0.0020 H   0  0  0  0  0
    6.1400   -0.9880   -0.8860 H   0  0  0  0  0
    2.3680    2.0760    0.0120 H   0  0  0  0  0
   -1.7380    1.8160    0.0130 H   0  0  0  0  0
   -4.3430    2.9950   -0.8740 H   0  0  0  0  0
   -5.8150    0.5440    0.0040 H   0  0  0  0  0
  1 19  1  0  0  0
  2  1  1  0  0  0
  2 18  2  0  0  0
  3  2  1  0  0  0
  3 20  1  0  0  0
  4  3  2  0  0  0
  4 15  1  0  0  0
  5  4  1  0  0  0
  5 21  1  0  0  0
  6  5  2  0  0  0
  6 22  1  0  0  0
  7 14  1  0  0  0
  7  6  1  0  0  0
  8  7  2  0  0  0
  8 23  1  0  0  0
  9 10  2  0  0  0
  9  8  1  0  0  0
  9 24  1  0  0  0
 10 12  1  0  0  0
 11 10  1  0  0  0
 11 25  1  0  0  0
 12 13  1  0  0  0
 12 14  2  0  0  0
 14 26  1  0  0  0
 15 16  2  0  0  0
 15 27  1  0  0  0
 16 18  1  0  0  0
 16 17  1  0  0  0
 17 28  1  0  0  0
 18 29  1  0  0  0
M  END
$$$$
