@<TRIPOS>MOLECULE
FSV
 29 30 0 0 0
SMALL
GASTEIGER

@<TRIPOS>ATOM
      1 O          -5.2820   -2.0160    0.0170 O.3     1  LIG1       -0.5066
      2 C          -4.3550   -1.0220    0.0160 C.ar    1  LIG1        0.1209
      3 C          -3.0060   -1.3340    0.0170 C.ar    1  LIG1       -0.0128
      4 C          -2.0550   -0.3120    0.0150 C.ar    1  LIG1       -0.0181
      5 C          -0.6180   -0.6390    0.0160 C.2     1  LIG1       -0.0538
      6 C           0.2950    0.3460    0.0140 C.2     1  LIG1       -0.0539
      7 C           1.7320    0.0190    0.0150 C.ar    1  LIG1       -0.0221
      8 C           2.1470   -1.3160    0.0100 C.ar    1  LIG1       -0.0510
      9 C           3.4920   -1.6180    0.0050 C.ar    1  LIG1       -0.0168
     10 C           4.4350   -0.5990    0.0040 C.ar    1  LIG1        0.1519
     11 O           5.7600   -0.9020   -0.0010 O.3     1  LIG1       -0.5039
     12 C           4.0280    0.7310    0.0080 C.ar    1  LIG1        0.1651
     13 F           4.9500    1.7190    0.0060 F       1  LIG1       -0.2016
     14 C           2.6840    1.0430    0.0130 C.ar    1  LIG1       -0.0157
     15 C          -2.4700    1.0220    0.0130 C.ar    1  LIG1       -0.0128
     16 C          -3.8210    1.3240    0.0130 C.ar    1  LIG1        0.1209
     17 O          -4.2260    2.6220    0.0100 O.3     1  LIG1       -0.5066
     18 C          -4.7620    0.3050    0.0090 C.ar    1  LIG1        0.0213
     19 H          -6.1950   -1.8052    0.0163 H       1  LIG1        0.2921
     20 H          -2.7039   -2.3208    0.0192 H       1  LIG1        0.0660
     21 H          -0.3132   -1.6250    0.0182 H       1  LIG1        0.0624
     22 H          -0.0098    1.3320    0.0118 H       1  LIG1        0.0624
     23 H           1.4472   -2.0745    0.0101 H       1  LIG1        0.0625
     24 H           3.7986   -2.6034    0.0020 H       1  LIG1        0.0655
     25 H           6.0358   -1.7975   -0.0037 H       1  LIG1        0.2923
     26 H           2.3821    2.0299    0.0153 H       1  LIG1        0.0653
     27 H          -1.7707    1.7809    0.0115 H       1  LIG1        0.0660
     28 H          -3.5909    3.3109    0.0127 H       1  LIG1        0.2921
     29 H          -5.7682    0.5342    0.0008 H       1  LIG1        0.0691
@<TRIPOS>BOND
     1     2     1    1
     2     2    18   ar
     3     3     2   ar
     4     4     3   ar
     5     4    15   ar
     6     5     4    1
     7     6     5    2
     8     7    14   ar
     9     7     6    1
    10     8     7   ar
    11     9    10   ar
    12     9     8   ar
    13    10    12   ar
    14    11    10    1
    15    12    13    1
    16    12    14   ar
    17    15    16   ar
    18    16    18   ar
    19    16    17    1
    20     1    19    1
    21     3    20    1
    22     5    21    1
    23     6    22    1
    24     8    23    1
    25     9    24    1
    26    11    25    1
    27    14    26    1
    28    15    27    1
    29    17    28    1
    30    18    29    1
