REMARK  5 active torsions:
REMARK  status: ('A' for Active; 'I' for Inactive)
REMARK    1  A    between atoms: C_2  and  O_1 
REMARK    2  A    between atoms: C_5  and  C_4 
REMARK    3  A    between atoms: C_7  and  C_6 
REMARK    4  A    between atoms: O_11  and  C_10 
REMARK    5  A    between atoms: C_16  and  O_17 
ROOT
ATOM      1  C   LIG d   1      -0.618  -0.639   0.016  0.00  0.00    -0.072 C 
ATOM      2  C   LIG d   1       0.295   0.346   0.014  0.00  0.00    -0.072 C 
ATOM      3  H   LIG d   1      -0.313  -1.625   0.018  0.00  0.00     0.084 H 
ATOM      4  H   LIG d   1      -0.010   1.332   0.012  0.00  0.00     0.084 H 
ENDROOT
BRANCH   1   5
ATOM      5  C   LIG d   1      -2.055  -0.312   0.015  0.00  0.00    -0.031 A 
ATOM      6  C   LIG d   1      -3.006  -1.334   0.017  0.00  0.00    -0.041 A 
ATOM      7  C   LIG d   1      -4.355  -1.022   0.016  0.00  0.00     0.069 A 
ATOM      8  H   LIG d   1      -2.704  -2.321   0.019  0.00  0.00     0.089 H 
ATOM      9  C   LIG d   1      -4.762   0.305   0.009  0.00  0.00    -0.019 A 
ATOM     10  C   LIG d   1      -3.821   1.324   0.013  0.00  0.00     0.069 A 
ATOM     11  H   LIG d   1      -5.768   0.534   0.001  0.00  0.00     0.092 H 
ATOM     12  C   LIG d   1      -2.470   1.022   0.013  0.00  0.00    -0.041 A 
ATOM     13  H   LIG d   1      -1.771   1.781   0.011  0.00  0.00     0.089 H 
BRANCH   7  14
ATOM     14  O   LIG d   1      -5.282  -2.016   0.017  0.00  0.00    -0.361 OA
ATOM     15  H   LIG d   1      -6.195  -1.805   0.016  0.00  0.00     0.217 HD
ENDBRANCH   7  14
BRANCH  10  16
ATOM     16  O   LIG d   1      -4.226   2.622   0.010  0.00  0.00    -0.361 OA
ATOM     17  H   LIG d   1      -3.591   3.311   0.013  0.00  0.00     0.217 HD
ENDBRANCH  10  16
ENDBRANCH   1   5
BRANCH   2  18
ATOM     18  C   LIG d   1       1.732   0.019   0.015  0.00  0.00    -0.033 A 
ATOM     19  C   LIG d   1       2.684   1.043   0.013  0.00  0.00    -0.033 A 
ATOM     20  C   LIG d   1       4.028   0.731   0.008  0.00  0.00     0.150 A 
ATOM     21  H   LIG d   1       2.382   2.030   0.015  0.00  0.00     0.089 H 
ATOM     22  C   LIG d   1       4.435  -0.599   0.004  0.00  0.00     0.104 A 
ATOM     23  F   LIG d   1       4.950   1.719   0.006  0.00  0.00    -0.203 F 
ATOM     24  C   LIG d   1       3.492  -1.618   0.005  0.00  0.00    -0.047 A 
ATOM     25  C   LIG d   1       2.147  -1.316   0.010  0.00  0.00    -0.070 A 
ATOM     26  H   LIG d   1       3.799  -2.603   0.002  0.00  0.00     0.087 H 
ATOM     27  H   LIG d   1       1.447  -2.075   0.010  0.00  0.00     0.084 H 
BRANCH  22  28
ATOM     28  O   LIG d   1       5.760  -0.902  -0.001  0.00  0.00    -0.358 OA
ATOM     29  H   LIG d   1       6.036  -1.798  -0.004  0.00  0.00     0.217 HD
ENDBRANCH  22  28
ENDBRANCH   2  18
TORSDOF 5
