REMARK  4 active torsions:
REMARK  status: ('A' for Active; 'I' for Inactive)
REMARK    1  A    between atoms: C_2  and  O_3 
REMARK    2  A    between atoms: C_5  and  O_6 
REMARK    3  A    between atoms: C_10  and  C_14 
REMARK    4  A    between atoms: C_17  and  O_18 
ROOT
ATOM      1  C   LIG d   1      -1.336   0.182  -3.436  0.00  0.00    -0.017 A 
ATOM      2  C   LIG d   1      -0.311   0.213  -4.368  0.00  0.00     0.071 A 
ATOM      3  C   LIG d   1       1.012   0.047  -3.973  0.00  0.00    -0.018 A 
ATOM      4  C   LIG d   1       1.320  -0.148  -2.640  0.00  0.00     0.085 A 
ATOM      5  C   LIG d   1       0.289  -0.176  -1.693  0.00  0.00     0.082 A 
ATOM      6  C   LIG d   1       0.565  -0.362  -0.260  0.00  0.00     0.200 C 
ATOM      7  O   LIG d   1       1.660  -0.716   0.143  0.00  0.00    -0.286 OA
ATOM      8  C   LIG d   1      -0.556  -0.102   0.662  0.00  0.00     0.048 C 
ATOM      9  C   LIG d   1      -1.801   0.043   0.139  0.00  0.00     0.034 C 
ATOM     10  O   LIG d   1      -2.035  -0.056  -1.174  0.00  0.00    -0.321 OA
ATOM     11  C   LIG d   1      -1.049  -0.015  -2.094  0.00  0.00     0.094 A 
ATOM     12  H   LIG d   1      -2.314   0.306  -3.741  0.00  0.00     0.092 H 
ATOM     13  H   LIG d   1       1.766   0.070  -4.677  0.00  0.00     0.092 H 
ATOM     14  H   LIG d   1      -2.591   0.236   0.774  0.00  0.00     0.125 H 
ENDROOT
BRANCH   8  15
ATOM     15  C   LIG d   1      -0.328   0.002   2.124  0.00  0.00    -0.020 A 
ATOM     16  C   LIG d   1      -0.972  -0.874   2.996  0.00  0.00    -0.069 A 
ATOM     17  C   LIG d   1      -0.758  -0.774   4.355  0.00  0.00    -0.050 A 
ATOM     18  H   LIG d   1      -1.608  -1.597   2.625  0.00  0.00     0.085 H 
ATOM     19  C   LIG d   1       0.097   0.197   4.854  0.00  0.00     0.065 A 
ATOM     20  H   LIG d   1      -1.235  -1.423   5.001  0.00  0.00     0.087 H 
ATOM     21  C   LIG d   1       0.735   1.075   3.989  0.00  0.00    -0.050 A 
ATOM     22  C   LIG d   1       0.529   0.977   2.629  0.00  0.00    -0.069 A 
ATOM     23  H   LIG d   1       1.364   1.802   4.364  0.00  0.00     0.087 H 
ATOM     24  H   LIG d   1       1.009   1.625   1.986  0.00  0.00     0.085 H 
BRANCH  19  25
ATOM     25  O   LIG d   1       0.305   0.293   6.194  0.00  0.00    -0.361 OA
ATOM     26  H   LIG d   1      -0.125  -0.299   6.779  0.00  0.00     0.217 HD
ENDBRANCH  19  25
ENDBRANCH   8  15
BRANCH   4  27
ATOM     27  O   LIG d   1       2.610  -0.312  -2.252  0.00  0.00    -0.360 OA
ATOM     28  H   LIG d   1       3.297  -0.293  -2.889  0.00  0.00     0.217 HD
ENDBRANCH   4  27
BRANCH   2  29
ATOM     29  O   LIG d   1      -0.601   0.409  -5.679  0.00  0.00    -0.361 OA
ATOM     30  H   LIG d   1      -1.491   0.521  -5.950  0.00  0.00     0.217 HD
ENDBRANCH   2  29
TORSDOF 4
