@<TRIPOS>MOLECULE
GEN
 30 32 0 0 0
SMALL
GASTEIGER

@<TRIPOS>ATOM
      1 C          -1.3360    0.1820   -3.4360 C.ar    1  LIG1        0.0231
      2 C          -0.3110    0.2130   -4.3680 C.ar    1  LIG1        0.1239
      3 O          -0.6010    0.4090   -5.6790 O.3     1  LIG1       -0.5065
      4 C           1.0120    0.0470   -3.9730 C.ar    1  LIG1        0.0223
      5 C           1.3200   -0.1480   -2.6400 C.ar    1  LIG1        0.1347
      6 O           2.6100   -0.3120   -2.2520 O.3     1  LIG1       -0.5058
      7 C           0.2890   -0.1760   -1.6930 C.ar    1  LIG1        0.1060
      8 C           0.5650   -0.3620   -0.2600 C.ar    1  LIG1        0.2037
      9 O           1.6600   -0.7160    0.1430 O.2     1  LIG1       -0.2863
     10 C          -0.5560   -0.1020    0.6620 C.ar    1  LIG1        0.0644
     11 C          -1.8010    0.0430    0.1390 C.ar    1  LIG1        0.1038
     12 O          -2.0350   -0.0560   -1.1740 O.2     1  LIG1       -0.4618
     13 C          -1.0490   -0.0150   -2.0940 C.ar    1  LIG1        0.1454
     14 C          -0.3280    0.0020    2.1240 C.ar    1  LIG1       -0.0110
     15 C          -0.9720   -0.8740    2.9960 C.ar    1  LIG1       -0.0504
     16 C          -0.7580   -0.7740    4.3550 C.ar    1  LIG1       -0.0196
     17 C           0.0970    0.1970    4.8540 C.ar    1  LIG1        0.1169
     18 O           0.3050    0.2930    6.1940 O.3     1  LIG1       -0.5068
     19 C           0.7350    1.0750    3.9890 C.ar    1  LIG1       -0.0196
     20 C           0.5290    0.9770    2.6290 C.ar    1  LIG1       -0.0504
     21 H          -2.3141    0.3057   -3.7412 H       1  LIG1        0.0691
     22 H          -1.4908    0.5214   -5.9503 H       1  LIG1        0.2921
     23 H           1.7659    0.0695   -4.6773 H       1  LIG1        0.0691
     24 H           3.2969   -0.2926   -2.8890 H       1  LIG1        0.2922
     25 H          -2.5910    0.2356    0.7745 H       1  LIG1        0.1037
     26 H          -1.6084   -1.5969    2.6252 H       1  LIG1        0.0625
     27 H          -1.2347   -1.4225    5.0010 H       1  LIG1        0.0654
     28 H          -0.1254   -0.2995    6.7786 H       1  LIG1        0.2921
     29 H           1.3642    1.8020    4.3640 H       1  LIG1        0.0654
     30 H           1.0094    1.6255    1.9859 H       1  LIG1        0.0625
@<TRIPOS>BOND
     1     1     2   ar
     2     1    13   ar
     3     2     3    1
     4     2     4   ar
     5     4     5   ar
     6     5     6    1
     7     5     7   ar
     8     7     8   ar
     9     7    13   ar
    10     8     9    2
    11     8    10   ar
    12    10    11   ar
    13    10    14    1
    14    11    12   ar
    15    12    13   ar
    16    14    15   ar
    17    14    20   ar
    18    15    16   ar
    19    16    17   ar
    20    17    18    1
    21    17    19   ar
    22    19    20   ar
    23     1    21    1
    24     3    22    1
    25     4    23    1
    26     6    24    1
    27    11    25    1
    28    15    26    1
    29    16    27    1
    30    18    28    1
    31    19    29    1
    32    20    30    1
