@<TRIPOS>MOLECULE
GW5
 48 50 0 0 0
SMALL
GASTEIGER

@<TRIPOS>ATOM
      1 C          -1.1680   -3.0850    0.9040 C.ar    1  LIG1       -0.0543
      2 C          -0.3210   -4.1600    0.7360 C.ar    1  LIG1       -0.0612
      3 C           0.3020   -4.3710   -0.4820 C.ar    1  LIG1       -0.0617
      4 C           0.0820   -3.5050   -1.5390 C.ar    1  LIG1       -0.0612
      5 C          -0.7610   -2.4250   -1.3870 C.ar    1  LIG1       -0.0543
      6 C          -1.3960   -2.2060   -0.1600 C.ar    1  LIG1       -0.0213
      7 C          -2.2980   -1.0570    0.0110 C.2     1  LIG1       -0.0322
      8 C          -3.7660   -1.2830    0.2670 C.3     1  LIG1       -0.0294
      9 C          -3.9980   -1.4710    1.7680 C.3     1  LIG1       -0.0612
     10 C          -1.8090    0.2060   -0.0630 C.2     1  LIG1       -0.0070
     11 C          -2.7330    1.3620   -0.0220 C.ar    1  LIG1       -0.0170
     12 C          -2.7210    2.2310    1.0690 C.ar    1  LIG1       -0.0540
     13 C          -3.5850    3.3060    1.1010 C.ar    1  LIG1       -0.0612
     14 C          -4.4630    3.5220    0.0540 C.ar    1  LIG1       -0.0617
     15 C          -4.4810    2.6640   -1.0310 C.ar    1  LIG1       -0.0612
     16 C          -3.6170    1.5890   -1.0780 C.ar    1  LIG1       -0.0540
     17 C          -0.3530    0.4290   -0.1840 C.ar    1  LIG1       -0.0170
     18 C           0.1710    1.0100   -1.3420 C.ar    1  LIG1       -0.0534
     19 C           1.5160    1.2160   -1.4550 C.ar    1  LIG1       -0.0540
     20 C           0.4980    0.0640    0.8640 C.ar    1  LIG1       -0.0534
     21 C           1.8440    0.2690    0.7540 C.ar    1  LIG1       -0.0540
     22 C           2.3710    0.8460   -0.4090 C.ar    1  LIG1       -0.0249
     23 C           3.8180    1.0670   -0.5300 C.2     1  LIG1       -0.0529
     24 C           4.6420    0.7090    0.4800 C.2     1  LIG1       -0.0388
     25 C           6.0820    0.9290    0.3600 C.2     1  LIG1        0.0646
     26 O           6.9050    0.5720    1.3680 O.co2   1  LIG1       -0.5452
     27 O           6.5380    1.4340   -0.6480 O.co2   1  LIG1       -0.5452
     28 H          -1.6325   -2.9293    1.8123 H       1  LIG1        0.0624
     29 H          -0.1511   -4.8089    1.5203 H       1  LIG1        0.0618
     30 H           0.9337   -5.1781   -0.6025 H       1  LIG1        0.0618
     31 H           0.5506   -3.6684   -2.4439 H       1  LIG1        0.0618
     32 H          -0.9232   -1.7799   -2.1761 H       1  LIG1        0.0624
     33 H          -4.0888   -2.1586   -0.2564 H       1  LIG1        0.0311
     34 H          -4.3229   -0.4367   -0.0772 H       1  LIG1        0.0311
     35 H          -3.4409   -2.3174    2.1117 H       1  LIG1        0.0233
     36 H          -5.0400   -1.6318    1.9505 H       1  LIG1        0.0233
     37 H          -3.6753   -0.5952    2.2912 H       1  LIG1        0.0233
     38 H          -2.0669    2.0701    1.8509 H       1  LIG1        0.0624
     39 H          -3.5763    3.9501    1.9073 H       1  LIG1        0.0618
     40 H          -5.1078    4.3273    0.0825 H       1  LIG1        0.0618
     41 H          -5.1417    2.8281   -1.8066 H       1  LIG1        0.0618
     42 H          -3.6245    0.9545   -1.8919 H       1  LIG1        0.0624
     43 H          -0.4591    1.2835   -2.1122 H       1  LIG1        0.0624
     44 H           1.9025    1.6441   -2.3107 H       1  LIG1        0.0624
     45 H           0.1090   -0.3603    1.7206 H       1  LIG1        0.0624
     46 H           2.4723   -0.0009    1.5269 H       1  LIG1        0.0624
     47 H           4.2053    1.4952   -1.3854 H       1  LIG1        0.0624
     48 H           4.2546    0.2806    1.3353 H       1  LIG1        0.0635
@<TRIPOS>BOND
     1     1     2   ar
     2     1     6   ar
     3     2     3   ar
     4     3     4   ar
     5     4     5   ar
     6     5     6   ar
     7     6     7    1
     8     7     8    1
     9     7    10    2
    10     8     9    1
    11    10    11    1
    12    10    17    1
    13    11    12   ar
    14    11    16   ar
    15    12    13   ar
    16    13    14   ar
    17    14    15   ar
    18    15    16   ar
    19    17    18   ar
    20    17    20   ar
    21    18    19   ar
    22    19    22   ar
    23    20    21   ar
    24    21    22   ar
    25    22    23    1
    26    23    24    2
    27    24    25    1
    28    25    26   ar
    29    25    27   ar
    30     1    28    1
    31     2    29    1
    32     3    30    1
    33     4    31    1
    34     5    32    1
    35     8    33    1
    36     8    34    1
    37     9    35    1
    38     9    36    1
    39     9    37    1
    40    12    38    1
    41    13    39    1
    42    14    40    1
    43    15    41    1
    44    16    42    1
    45    18    43    1
    46    19    44    1
    47    20    45    1
    48    21    46    1
    49    23    47    1
    50    24    48    1
