REMARK  7 active torsions:
REMARK  status: ('A' for Active; 'I' for Inactive)
REMARK    1  A    between atoms: C_6  and  C_7 
REMARK    2  A    between atoms: C_7  and  C_8 
REMARK    3  A    between atoms: C_8  and  C_9 
REMARK    4  A    between atoms: C_10  and  C_11 
REMARK    5  A    between atoms: C_10  and  C_17 
REMARK    6  A    between atoms: C_22  and  C_23 
REMARK    7  A    between atoms: C_24  and  C_25 
ROOT
ATOM      1  C   LIG d   1      -2.298  -1.057   0.011  0.00  0.00    -0.036 C 
ATOM      2  C   LIG d   1      -1.809   0.206  -0.063  0.00  0.00    -0.009 C 
ENDROOT
BRANCH   2   3
ATOM      3  C   LIG d   1      -2.733   1.362  -0.022  0.00  0.00    -0.025 A 
ATOM      4  C   LIG d   1      -2.721   2.231   1.069  0.00  0.00    -0.072 A 
ATOM      5  C   LIG d   1      -3.585   3.306   1.101  0.00  0.00    -0.082 A 
ATOM      6  H   LIG d   1      -2.067   2.070   1.851  0.00  0.00     0.084 H 
ATOM      7  C   LIG d   1      -4.463   3.522   0.054  0.00  0.00    -0.083 A 
ATOM      8  H   LIG d   1      -3.576   3.950   1.907  0.00  0.00     0.083 H 
ATOM      9  C   LIG d   1      -4.481   2.664  -1.031  0.00  0.00    -0.082 A 
ATOM     10  H   LIG d   1      -5.108   4.327   0.083  0.00  0.00     0.083 H 
ATOM     11  C   LIG d   1      -3.617   1.589  -1.078  0.00  0.00    -0.072 A 
ATOM     12  H   LIG d   1      -5.142   2.828  -1.807  0.00  0.00     0.083 H 
ATOM     13  H   LIG d   1      -3.624   0.955  -1.892  0.00  0.00     0.084 H 
ENDBRANCH   2   3
BRANCH   2  14
ATOM     14  C   LIG d   1      -0.353   0.429  -0.184  0.00  0.00    -0.025 A 
ATOM     15  C   LIG d   1       0.171   1.010  -1.342  0.00  0.00    -0.071 A 
ATOM     16  C   LIG d   1       1.516   1.216  -1.455  0.00  0.00    -0.072 A 
ATOM     17  H   LIG d   1      -0.459   1.284  -2.112  0.00  0.00     0.084 H 
ATOM     18  C   LIG d   1       2.371   0.846  -0.409  0.00  0.00    -0.036 A 
ATOM     19  H   LIG d   1       1.903   1.644  -2.311  0.00  0.00     0.084 H 
ATOM     20  C   LIG d   1       1.844   0.269   0.754  0.00  0.00    -0.072 A 
ATOM     21  C   LIG d   1       0.498   0.064   0.864  0.00  0.00    -0.071 A 
ATOM     22  H   LIG d   1       2.472  -0.001   1.527  0.00  0.00     0.084 H 
ATOM     23  H   LIG d   1       0.109  -0.360   1.721  0.00  0.00     0.084 H 
BRANCH  18  24
ATOM     24  C   LIG d   1       3.818   1.067  -0.530  0.00  0.00    -0.067 C 
ATOM     25  C   LIG d   1       4.642   0.709   0.480  0.00  0.00    -0.009 C 
ATOM     26  H   LIG d   1       4.255   0.281   1.335  0.00  0.00     0.094 H 
ATOM     27  H   LIG d   1       4.205   1.495  -1.385  0.00  0.00     0.085 H 
BRANCH  25  28
ATOM     28  C   LIG d   1       6.082   0.929   0.360  0.00  0.00     0.198 C 
ATOM     29  O   LIG d   1       6.905   0.572   1.368  0.00  0.00    -0.645 OA
ATOM     30  O   LIG d   1       6.538   1.434  -0.648  0.00  0.00    -0.645 OA
ENDBRANCH  25  28
ENDBRANCH  18  24
ENDBRANCH   2  14
BRANCH   1  31
ATOM     31  C   LIG d   1      -1.396  -2.206  -0.160  0.00  0.00    -0.029 A 
ATOM     32  C   LIG d   1      -1.168  -3.085   0.904  0.00  0.00    -0.072 A 
ATOM     33  C   LIG d   1      -0.321  -4.160   0.736  0.00  0.00    -0.082 A 
ATOM     34  H   LIG d   1      -1.633  -2.929   1.812  0.00  0.00     0.084 H 
ATOM     35  C   LIG d   1       0.302  -4.371  -0.482  0.00  0.00    -0.083 A 
ATOM     36  H   LIG d   1      -0.151  -4.809   1.520  0.00  0.00     0.083 H 
ATOM     37  C   LIG d   1       0.082  -3.505  -1.539  0.00  0.00    -0.082 A 
ATOM     38  H   LIG d   1       0.934  -5.178  -0.603  0.00  0.00     0.083 H 
ATOM     39  C   LIG d   1      -0.761  -2.425  -1.387  0.00  0.00    -0.072 A 
ATOM     40  H   LIG d   1       0.551  -3.668  -2.444  0.00  0.00     0.083 H 
ATOM     41  H   LIG d   1      -0.923  -1.780  -2.176  0.00  0.00     0.084 H 
ENDBRANCH   1  31
BRANCH   1  42
ATOM     42  C   LIG d   1      -3.766  -1.283   0.267  0.00  0.00    -0.043 C 
ATOM     43  H   LIG d   1      -4.089  -2.159  -0.256  0.00  0.00     0.039 H 
ATOM     44  H   LIG d   1      -4.323  -0.437  -0.077  0.00  0.00     0.039 H 
BRANCH  42  45
ATOM     45  C   LIG d   1      -3.998  -1.471   1.768  0.00  0.00    -0.073 C 
ATOM     46  H   LIG d   1      -3.441  -2.317   2.112  0.00  0.00     0.028 H 
ATOM     47  H   LIG d   1      -5.040  -1.632   1.950  0.00  0.00     0.028 H 
ATOM     48  H   LIG d   1      -3.675  -0.595   2.291  0.00  0.00     0.028 H 
ENDBRANCH  42  45
ENDBRANCH   1  42
TORSDOF 7
