GW5
  CCTOOLS-0106121231

 49 51  0  0  0  0  0  0  0  0999 V2000
   -1.1680   -3.0850    0.9040 C   0  0  0  0  0
   -0.3210   -4.1600    0.7360 C   0  0  0  0  0
    0.3020   -4.3710   -0.4820 C   0  0  0  0  0
    0.0820   -3.5050   -1.5390 C   0  0  0  0  0
   -0.7610   -2.4250   -1.3870 C   0  0  0  0  0
   -1.3960   -2.2060   -0.1600 C   0  0  0  0  0
   -2.2980   -1.0570    0.0110 C   0  0  0  0  0
   -3.7660   -1.2830    0.2670 C   0  0  0  0  0
   -3.9980   -1.4710    1.7680 C   0  0  0  0  0
   -1.8090    0.2060   -0.0630 C   0  0  0  0  0
   -2.7330    1.3620   -0.0220 C   0  0  0  0  0
   -2.7210    2.2310    1.0690 C   0  0  0  0  0
   -3.5850    3.3060    1.1010 C   0  0  0  0  0
   -4.4630    3.5220    0.0540 C   0  0  0  0  0
   -4.4810    2.6640   -1.0310 C   0  0  0  0  0
   -3.6170    1.5890   -1.0780 C   0  0  0  0  0
   -0.3530    0.4290   -0.1840 C   0  0  0  0  0
    0.1710    1.0100   -1.3420 C   0  0  0  0  0
    1.5160    1.2160   -1.4550 C   0  0  0  0  0
    0.4980    0.0640    0.8640 C   0  0  0  0  0
    1.8440    0.2690    0.7540 C   0  0  0  0  0
    2.3710    0.8460   -0.4090 C   0  0  0  0  0
    3.8180    1.0670   -0.5300 C   0  0  0  0  0
    4.6420    0.7090    0.4800 C   0  0  0  0  0
    6.0820    0.9290    0.3600 C   0  0  0  0  0
    6.9050    0.5720    1.3680 O   0  0  0  0  0
    6.5380    1.4340   -0.6480 O   0  0  0  0  0
   -1.6580   -2.9250    1.8540 H   0  0  0  0  0
   -0.1440   -4.8400    1.5560 H   0  0  0  0  0
    0.9650   -5.2140   -0.6070 H   0  0  0  0  0
    0.5730   -3.6760   -2.4860 H   0  0  0  0  0
   -0.9320   -1.7510   -2.2130 H   0  0  0  0  0
   -4.3330   -0.4210   -0.0830 H   0  0  0  0  0
   -4.0950   -2.1760   -0.2660 H   0  0  0  0  0
   -5.0670   -1.5690    1.9610 H   0  0  0  0  0
   -3.4840   -2.3710    2.1050 H   0  0  0  0  0
   -3.6090   -0.6070    2.3060 H   0  0  0  0  0
   -2.0360    2.0630    1.8870 H   0  0  0  0  0
   -3.5760    3.9800    1.9450 H   0  0  0  0  0
   -5.1390    4.3650    0.0840 H   0  0  0  0  0
   -5.1690    2.8380   -1.8450 H   0  0  0  0  0
   -3.6290    0.9220   -1.9270 H   0  0  0  0  0
   -0.4880    1.2950   -2.1490 H   0  0  0  0  0
    1.9200    1.6640   -2.3510 H   0  0  0  0  0
    0.0920   -0.3800    1.7600 H   0  0  0  0  0
    2.5010   -0.0120    1.5630 H   0  0  0  0  0
    4.2230    1.5150   -1.4250 H   0  0  0  0  0
    4.2370    0.2610    1.3750 H   0  0  0  0  0
    7.8380    0.7570    1.1980 H   0  0  0  0  0
  1  2  2  0  0  0
  1  6  1  0  0  0
  1 28  1  0  0  0
  2  3  1  0  0  0
  2 29  1  0  0  0
  3  4  2  0  0  0
  3 30  1  0  0  0
  4  5  1  0  0  0
  4 31  1  0  0  0
  5  6  2  0  0  0
  5 32  1  0  0  0
  6  7  1  0  0  0
  7  8  1  0  0  0
  7 10  2  0  0  0
  8  9  1  0  0  0
  8 33  1  0  0  0
  8 34  1  0  0  0
  9 35  1  0  0  0
  9 36  1  0  0  0
  9 37  1  0  0  0
 10 11  1  0  0  0
 10 17  1  0  0  0
 11 12  2  0  0  0
 11 16  1  0  0  0
 12 13  1  0  0  0
 12 38  1  0  0  0
 13 14  2  0  0  0
 13 39  1  0  0  0
 14 15  1  0  0  0
 14 40  1  0  0  0
 15 16  2  0  0  0
 15 41  1  0  0  0
 16 42  1  0  0  0
 17 18  2  0  0  0
 17 20  1  0  0  0
 18 19  1  0  0  0
 18 43  1  0  0  0
 19 22  2  0  0  0
 19 44  1  0  0  0
 20 21  2  0  0  0
 20 45  1  0  0  0
 21 22  1  0  0  0
 21 46  1  0  0  0
 22 23  1  0  0  0
 23 24  2  0  0  0
 23 47  1  0  0  0
 24 25  1  0  0  0
 24 48  1  0  0  0
 25 26  1  0  0  0
 25 27  2  0  0  0
 26 49  1  0  0  0
M  END
$$$$
