REMARK  10 active torsions:
REMARK  status: ('A' for Active; 'I' for Inactive)
REMARK    1  A    between atoms: C_3  and  O_4 
REMARK    2  A    between atoms: C_8  and  C_7 
REMARK    3  A    between atoms: C_12  and  C_11 
REMARK    4  A    between atoms: C_12  and  O_13 
REMARK    5  A    between atoms: O_13  and  C_14 
REMARK    6  A    between atoms: C_17  and  C_16 
REMARK    7  A    between atoms: C_17  and  O_18 
REMARK    8  A    between atoms: C_19  and  O_18 
REMARK    9  A    between atoms: C_22  and  C_23 
REMARK   10  A    between atoms: C_26  and  O_27 
ROOT
ATOM      1  C   LIG d   1      -0.210  -0.655  -0.945  0.00  0.00    -0.004 C 
ATOM      2  C   LIG d   1       1.140  -0.962  -1.605  0.00  0.00     0.098 C 
ATOM      3  O   LIG d   1       1.230   0.146  -2.566  0.00  0.00    -0.361 OA
ATOM      4  C   LIG d   1       2.190  -0.549  -0.568  0.00  0.00     0.065 C 
ATOM      5  C   LIG d   1       2.122   0.807  -0.518  0.00  0.00     0.065 C 
ATOM      6  C   LIG d   1       1.020   1.188  -1.552  0.00  0.00     0.098 C 
ATOM      7  C   LIG d   1      -0.288   0.701  -0.917  0.00  0.00    -0.004 C 
ATOM      8  H   LIG d   1       1.249  -1.960  -1.974  0.00  0.00     0.099 H 
ATOM      9  H   LIG d   1       1.022   2.212  -1.864  0.00  0.00     0.099 H 
ENDROOT
BRANCH   1  10
ATOM     10  C   LIG d   1      -1.208  -1.621  -0.455  0.00  0.00    -0.026 A 
ATOM     11  C   LIG d   1      -2.464  -1.701  -1.063  0.00  0.00    -0.070 A 
ATOM     12  C   LIG d   1      -3.395  -2.607  -0.601  0.00  0.00    -0.050 A 
ATOM     13  H   LIG d   1      -2.694  -1.083  -1.857  0.00  0.00     0.084 H 
ATOM     14  C   LIG d   1      -3.084  -3.443   0.464  0.00  0.00     0.065 A 
ATOM     15  H   LIG d   1      -4.324  -2.664  -1.047  0.00  0.00     0.087 H 
ATOM     16  C   LIG d   1      -1.836  -3.370   1.069  0.00  0.00    -0.050 A 
ATOM     17  C   LIG d   1      -0.899  -2.468   0.613  0.00  0.00    -0.070 A 
ATOM     18  H   LIG d   1      -1.610  -3.992   1.861  0.00  0.00     0.087 H 
ATOM     19  H   LIG d   1       0.030  -2.418   1.060  0.00  0.00     0.084 H 
BRANCH  14  20
ATOM     20  O   LIG d   1      -4.005  -4.334   0.916  0.00  0.00    -0.361 OA
ATOM     21  H   LIG d   1      -3.797  -4.899   1.634  0.00  0.00     0.217 HD
ENDBRANCH  14  20
ENDBRANCH   1  10
BRANCH   7  22
ATOM     22  C   LIG d   1      -1.389   1.525  -0.388  0.00  0.00    -0.026 A 
ATOM     23  C   LIG d   1      -1.690   1.500   0.977  0.00  0.00    -0.070 A 
ATOM     24  C   LIG d   1      -2.717   2.277   1.467  0.00  0.00    -0.050 A 
ATOM     25  H   LIG d   1      -1.144   0.901   1.616  0.00  0.00     0.084 H 
ATOM     26  C   LIG d   1      -3.461   3.074   0.607  0.00  0.00     0.065 A 
ATOM     27  H   LIG d   1      -2.934   2.267   2.476  0.00  0.00     0.087 H 
ATOM     28  C   LIG d   1      -3.169   3.098  -0.751  0.00  0.00    -0.050 A 
ATOM     29  C   LIG d   1      -2.140   2.329  -1.250  0.00  0.00    -0.070 A 
ATOM     30  H   LIG d   1      -3.723   3.692  -1.387  0.00  0.00     0.087 H 
ATOM     31  H   LIG d   1      -1.924   2.347  -2.259  0.00  0.00     0.084 H 
BRANCH  26  32
ATOM     32  O   LIG d   1      -4.476   3.834   1.094  0.00  0.00    -0.361 OA
ATOM     33  H   LIG d   1      -4.978   4.372   0.514  0.00  0.00     0.217 HD
ENDBRANCH  26  32
ENDBRANCH   7  22
BRANCH   4  34
ATOM     34  C   LIG d   1       3.082  -1.432   0.208  0.00  0.00     0.292 C 
ATOM     35  O   LIG d   1       3.870  -0.956   1.000  0.00  0.00    -0.259 OA
BRANCH  34  36
ATOM     36  O   LIG d   1       3.023  -2.767   0.038  0.00  0.00    -0.323 OA
BRANCH  36  37
ATOM     37  C   LIG d   1       3.930  -3.575   0.834  0.00  0.00     0.013 C 
ATOM     38  H   LIG d   1       3.781  -4.609   0.604  0.00  0.00     0.067 H 
ATOM     39  H   LIG d   1       3.737  -3.409   1.873  0.00  0.00     0.067 H 
ATOM     40  H   LIG d   1       4.940  -3.302   0.611  0.00  0.00     0.067 H 
ENDBRANCH  36  37
ENDBRANCH  34  36
ENDBRANCH   4  34
BRANCH   5  41
ATOM     41  C   LIG d   1       2.925   1.717   0.323  0.00  0.00     0.292 C 
ATOM     42  O   LIG d   1       3.759   1.265   1.081  0.00  0.00    -0.259 OA
BRANCH  41  43
ATOM     43  O   LIG d   1       2.731   3.048   0.250  0.00  0.00    -0.323 OA
BRANCH  43  44
ATOM     44  C   LIG d   1       3.556   3.882   1.106  0.00  0.00     0.013 C 
ATOM     45  H   LIG d   1       3.304   4.910   0.952  0.00  0.00     0.067 H 
ATOM     46  H   LIG d   1       4.588   3.728   0.867  0.00  0.00     0.067 H 
ATOM     47  H   LIG d   1       3.385   3.622   2.130  0.00  0.00     0.067 H 
ENDBRANCH  43  44
ENDBRANCH  41  43
ENDBRANCH   5  41
TORSDOF 10
