@<TRIPOS>MOLECULE
HZ3
 47 50 0 0 0
SMALL
GASTEIGER

@<TRIPOS>ATOM
      1 C          -0.8990   -2.4680    0.6130 C.ar    1  LIG1       -0.0508
      2 C          -1.8360   -3.3700    1.0690 C.ar    1  LIG1       -0.0196
      3 C          -3.0840   -3.4430    0.4640 C.ar    1  LIG1        0.1169
      4 O          -4.0050   -4.3340    0.9160 O.3     1  LIG1       -0.5068
      5 C          -3.3950   -2.6070   -0.6010 C.ar    1  LIG1       -0.0196
      6 C          -2.4640   -1.7010   -1.0630 C.ar    1  LIG1       -0.0508
      7 C          -1.2080   -1.6210   -0.4550 C.ar    1  LIG1       -0.0185
      8 C          -0.2100   -0.6550   -0.9450 C.2     1  LIG1       -0.0006
      9 C           1.1400   -0.9620   -1.6050 C.3     1  LIG1        0.1180
     10 O           1.2300    0.1460   -2.5660 O.3     1  LIG1       -0.3544
     11 C           2.1900   -0.5490   -0.5680 C.2     1  LIG1        0.0822
     12 C           3.0820   -1.4320    0.2080 C.2     1  LIG1        0.3383
     13 O           3.0230   -2.7670    0.0380 O.3     1  LIG1       -0.4646
     14 C           3.9300   -3.5750    0.8340 C.3     1  LIG1        0.0820
     15 O           3.8700   -0.9560    1.0000 O.2     1  LIG1       -0.2452
     16 C           2.1220    0.8070   -0.5180 C.2     1  LIG1        0.0822
     17 C           2.9250    1.7170    0.3230 C.2     1  LIG1        0.3383
     18 O           2.7310    3.0480    0.2500 O.3     1  LIG1       -0.4646
     19 C           3.5560    3.8820    1.1060 C.3     1  LIG1        0.0820
     20 O           3.7590    1.2650    1.0810 O.2     1  LIG1       -0.2452
     21 C           1.0200    1.1880   -1.5520 C.3     1  LIG1        0.1180
     22 C          -0.2880    0.7010   -0.9170 C.2     1  LIG1       -0.0006
     23 C          -1.3890    1.5250   -0.3880 C.ar    1  LIG1       -0.0185
     24 C          -2.1400    2.3290   -1.2500 C.ar    1  LIG1       -0.0508
     25 C          -3.1690    3.0980   -0.7510 C.ar    1  LIG1       -0.0196
     26 C          -3.4610    3.0740    0.6070 C.ar    1  LIG1        0.1169
     27 O          -4.4760    3.8340    1.0940 O.3     1  LIG1       -0.5068
     28 C          -2.7170    2.2770    1.4670 C.ar    1  LIG1       -0.0196
     29 C          -1.6900    1.5000    0.9770 C.ar    1  LIG1       -0.0508
     30 H           0.0300   -2.4180    1.0597 H       1  LIG1        0.0625
     31 H          -1.6100   -3.9919    1.8609 H       1  LIG1        0.0654
     32 H          -3.7973   -4.8988    1.6342 H       1  LIG1        0.2921
     33 H          -4.3239   -2.6641   -1.0469 H       1  LIG1        0.0654
     34 H          -2.6942   -1.0828   -1.8566 H       1  LIG1        0.0625
     35 H           1.2491   -1.9602   -1.9745 H       1  LIG1        0.0700
     36 H           3.7813   -4.6094    0.6041 H       1  LIG1        0.0661
     37 H           3.7367   -3.4092    1.8733 H       1  LIG1        0.0661
     38 H           4.9402   -3.3017    0.6111 H       1  LIG1        0.0661
     39 H           3.3038    4.9104    0.9522 H       1  LIG1        0.0661
     40 H           4.5875    3.7281    0.8669 H       1  LIG1        0.0661
     41 H           3.3845    3.6220    2.1297 H       1  LIG1        0.0661
     42 H           1.0224    2.2115   -1.8638 H       1  LIG1        0.0700
     43 H          -1.9242    2.3468   -2.2590 H       1  LIG1        0.0625
     44 H          -3.7233    3.6924   -1.3869 H       1  LIG1        0.0654
     45 H          -4.9784    4.3720    0.5142 H       1  LIG1        0.2921
     46 H          -2.9339    2.2666    2.4759 H       1  LIG1        0.0654
     47 H          -1.1443    0.9010    1.6161 H       1  LIG1        0.0625
@<TRIPOS>BOND
     1     1     2   ar
     2     2     3   ar
     3     3     4    1
     4     5     3   ar
     5     6     5   ar
     6     7     6   ar
     7     7     1   ar
     8     8     7    1
     9     8    22    2
    10     9     8    1
    11    10     9    1
    12    10    21    1
    13    11     9    1
    14    11    16    2
    15    12    13    1
    16    12    11    1
    17    13    14    1
    18    15    12    2
    19    16    21    1
    20    17    16    1
    21    17    18    1
    22    19    18    1
    23    20    17    2
    24    21    22    1
    25    22    23    1
    26    23    29   ar
    27    23    24   ar
    28    24    25   ar
    29    25    26   ar
    30    26    27    1
    31    28    26   ar
    32    29    28   ar
    33     1    30    1
    34     2    31    1
    35     4    32    1
    36     5    33    1
    37     6    34    1
    38     9    35    1
    39    14    36    1
    40    14    37    1
    41    14    38    1
    42    19    39    1
    43    19    40    1
    44    19    41    1
    45    21    42    1
    46    24    43    1
    47    25    44    1
    48    27    45    1
    49    28    46    1
    50    29    47    1
