REMARK  3 active torsions:
REMARK  status: ('A' for Active; 'I' for Inactive)
REMARK    1  A    between atoms: C_4  and  O_12 
REMARK    2  A    between atoms: C_16  and  C_17 
REMARK    3  A    between atoms: C_19  and  O_20 
ROOT
ATOM      1  C   LIG d   1      -0.890  -5.231  -1.051  0.00  0.00    -0.020 C 
ATOM      2  C   LIG d   1      -0.629  -3.770  -0.762  0.00  0.00    -0.018 A 
ATOM      3  C   LIG d   1      -1.507  -2.784  -1.239  0.00  0.00    -0.042 A 
ATOM      4  C   LIG d   1      -1.282  -1.434  -0.965  0.00  0.00     0.066 A 
ATOM      5  C   LIG d   1      -0.173  -1.050  -0.217  0.00  0.00    -0.048 A 
ATOM      6  C   LIG d   1      -2.097  -6.014   0.892  0.00  0.00    -0.064 C 
ATOM      7  C   LIG d   1      -0.621  -6.353   1.095  0.00  0.00    -0.058 C 
ATOM      8  C   LIG d   1       0.067  -6.141  -0.267  0.00  0.00    -0.017 C 
ATOM      9  C   LIG d   1       0.721  -2.014   0.245  0.00  0.00    -0.048 A 
ATOM     10  C   LIG d   1       0.505  -3.365  -0.043  0.00  0.00     0.076 A 
ATOM     11  O   LIG d   1       1.445  -4.236   0.446  0.00  0.00    -0.340 OA
ATOM     12  C   LIG d   1       1.464  -5.515  -0.206  0.00  0.00     0.074 C 
ATOM     13  C   LIG d   1      -2.259  -5.744  -0.598  0.00  0.00    -0.057 C 
ATOM     14  H   LIG d   1      -0.785  -5.272  -2.115  0.00  0.00     0.048 H 
ATOM     15  H   LIG d   1      -2.329  -3.061  -1.799  0.00  0.00     0.088 H 
ATOM     16  H   LIG d   1      -0.013  -0.053  -0.005  0.00  0.00     0.087 H 
ATOM     17  H   LIG d   1      -2.713  -6.836   1.191  0.00  0.00     0.033 H 
ATOM     18  H   LIG d   1      -2.392  -5.170   1.480  0.00  0.00     0.033 H 
ATOM     19  H   LIG d   1      -0.515  -7.371   1.408  0.00  0.00     0.033 H 
ATOM     20  H   LIG d   1      -0.182  -5.736   1.851  0.00  0.00     0.033 H 
ATOM     21  H   LIG d   1       0.241  -7.093  -0.723  0.00  0.00     0.045 H 
ATOM     22  H   LIG d   1       1.543  -1.730   0.800  0.00  0.00     0.087 H 
ATOM     23  H   LIG d   1       1.774  -5.371  -1.220  0.00  0.00     0.092 H 
ATOM     24  H   LIG d   1      -2.516  -6.643  -1.119  0.00  0.00     0.034 H 
ATOM     25  H   LIG d   1      -3.041  -5.042  -0.800  0.00  0.00     0.034 H 
ENDROOT
BRANCH  12  26
ATOM     26  C   LIG d   1       2.470  -6.432   0.465  0.00  0.00    -0.028 A 
ATOM     27  C   LIG d   1       3.183  -7.358  -0.295  0.00  0.00    -0.072 A 
ATOM     28  C   LIG d   1       4.107  -8.202   0.323  0.00  0.00    -0.050 A 
ATOM     29  H   LIG d   1       3.028  -7.419  -1.313  0.00  0.00     0.084 H 
ATOM     30  C   LIG d   1       4.316  -8.118   1.699  0.00  0.00     0.065 A 
ATOM     31  H   LIG d   1       4.635  -8.888  -0.238  0.00  0.00     0.087 H 
ATOM     32  C   LIG d   1       3.602  -7.191   2.458  0.00  0.00    -0.050 A 
ATOM     33  C   LIG d   1       2.679  -6.347   1.841  0.00  0.00    -0.072 A 
ATOM     34  H   LIG d   1       3.757  -7.130   3.477  0.00  0.00     0.087 H 
ATOM     35  H   LIG d   1       2.151  -5.660   2.402  0.00  0.00     0.084 H 
BRANCH  30  36
ATOM     36  O   LIG d   1       5.217  -8.942   2.302  0.00  0.00    -0.361 OA
ATOM     37  H   LIG d   1       5.358  -8.886   3.227  0.00  0.00     0.217 HD
ENDBRANCH  30  36
ENDBRANCH  12  26
BRANCH   4  38
ATOM     38  O   LIG d   1      -2.150  -0.493  -1.428  0.00  0.00    -0.361 OA
ATOM     39  H   LIG d   1      -2.897  -0.752  -1.932  0.00  0.00     0.217 HD
ENDBRANCH   4  38
TORSDOF 3
