@<TRIPOS>MOLECULE
I0G
 39 42 0 0 0
SMALL
GASTEIGER

@<TRIPOS>ATOM
      1 C          -0.8900   -5.2310   -1.0510 C.3     1  LIG1       -0.0058
      2 C          -0.6290   -3.7700   -0.7620 C.ar    1  LIG1        0.0012
      3 C          -1.5070   -2.7840   -1.2390 C.ar    1  LIG1       -0.0133
      4 C          -1.2820   -1.4340   -0.9650 C.ar    1  LIG1        0.1174
      5 C          -0.1730   -1.0500   -0.2170 C.ar    1  LIG1       -0.0167
      6 C           3.1830   -7.3580   -0.2950 C.ar    1  LIG1       -0.0516
      7 C           3.6020   -7.1910    2.4580 C.ar    1  LIG1       -0.0198
      8 C           2.6790   -6.3470    1.8410 C.ar    1  LIG1       -0.0516
      9 C          -2.0970   -6.0140    0.8920 C.3     1  LIG1       -0.0521
     10 C          -0.6210   -6.3530    1.0950 C.3     1  LIG1       -0.0460
     11 C           0.0670   -6.1410   -0.2670 C.3     1  LIG1        0.0072
     12 O          -2.1500   -0.4930   -1.4280 O.3     1  LIG1       -0.5068
     13 C           0.7210   -2.0140    0.2450 C.ar    1  LIG1       -0.0162
     14 C           0.5050   -3.3650   -0.0430 C.ar    1  LIG1        0.1251
     15 O           1.4450   -4.2360    0.4460 O.3     1  LIG1       -0.4836
     16 C           1.4640   -5.5150   -0.2060 C.3     1  LIG1        0.1285
     17 C           2.4700   -6.4320    0.4650 C.ar    1  LIG1       -0.0069
     18 C           4.1070   -8.2020    0.3230 C.ar    1  LIG1       -0.0198
     19 C           4.3160   -8.1180    1.6990 C.ar    1  LIG1        0.1169
     20 O           5.2170   -8.9420    2.3020 O.3     1  LIG1       -0.5068
     21 C          -2.2590   -5.7440   -0.5980 C.3     1  LIG1       -0.0457
     22 H          -0.7847   -5.2721   -2.1150 H       1  LIG1        0.0354
     23 H          -2.3286   -3.0606   -1.7989 H       1  LIG1        0.0658
     24 H          -0.0129   -0.0528   -0.0048 H       1  LIG1        0.0655
     25 H           3.0278   -7.4194   -1.3134 H       1  LIG1        0.0623
     26 H           3.7567   -7.1296    3.4765 H       1  LIG1        0.0654
     27 H           2.1513   -5.6603    2.4022 H       1  LIG1        0.0623
     28 H          -2.7128   -6.8364    1.1908 H       1  LIG1        0.0266
     29 H          -2.3919   -5.1699    1.4798 H       1  LIG1        0.0266
     30 H          -0.5150   -7.3706    1.4084 H       1  LIG1        0.0269
     31 H          -0.1822   -5.7356    1.8508 H       1  LIG1        0.0269
     32 H           0.2411   -7.0932   -0.7229 H       1  LIG1        0.0346
     33 H          -2.8966   -0.7517   -1.9316 H       1  LIG1        0.2921
     34 H           1.5433   -1.7304    0.8003 H       1  LIG1        0.0655
     35 H           1.7744   -5.3706   -1.2198 H       1  LIG1        0.0787
     36 H           4.6354   -8.8881   -0.2384 H       1  LIG1        0.0654
     37 H           5.3577   -8.8858    3.2267 H       1  LIG1        0.2921
     38 H          -2.5163   -6.6427   -1.1185 H       1  LIG1        0.0271
     39 H          -3.0412   -5.0423   -0.7996 H       1  LIG1        0.0271
@<TRIPOS>BOND
     1     1    21    1
     2     1     2    1
     3     1    11    1
     4     2     3   ar
     5     2    14   ar
     6     3     4   ar
     7     4    12    1
     8     4     5   ar
     9     5    13   ar
    10     6    17   ar
    11     6    18   ar
    12     7     8   ar
    13     7    19   ar
    14     8    17   ar
    15     9    21    1
    16     9    10    1
    17    10    11    1
    18    11    16    1
    19    13    14   ar
    20    14    15    1
    21    15    16    1
    22    16    17    1
    23    18    19   ar
    24    19    20    1
    25     1    22    1
    26     3    23    1
    27     5    24    1
    28     6    25    1
    29     7    26    1
    30     8    27    1
    31     9    28    1
    32     9    29    1
    33    10    30    1
    34    10    31    1
    35    11    32    1
    36    12    33    1
    37    13    34    1
    38    16    35    1
    39    18    36    1
    40    20    37    1
    41    21    38    1
    42    21    39    1
