@<TRIPOS>MOLECULE
IOG
 79 83 0 0 0
SMALL
GASTEIGER

@<TRIPOS>ATOM
      1 C          11.0990    4.2530    2.8280 C.ar    1  LIG1       -0.0471
      2 C          11.4610    3.1880    2.0170 C.ar    1  LIG1       -0.0551
      3 C          12.7850    2.7490    2.0120 C.ar    1  LIG1       -0.0199
      4 C          13.7310    3.3810    2.8180 C.ar    1  LIG1        0.1169
      5 O          15.0230    2.9520    2.8150 O.3     1  LIG1       -0.5068
      6 C          13.3540    4.4510    3.6290 C.ar    1  LIG1       -0.0199
      7 C          12.0300    4.8900    3.6340 C.ar    1  LIG1       -0.0551
      8 C           9.6670    4.7260    2.8330 C.3     1  LIG1       -0.0260
      9 C           9.3680    5.8160    1.7920 C.3     1  LIG1       -0.0308
     10 C           7.9300    6.3600    1.8350 C.3     1  LIG1        0.0206
     11 C           7.7510    7.4860    0.8200 C.3     1  LIG1       -0.0466
     12 N           6.9660    5.3160    1.5790 N.am    1  LIG1       -0.3124
     13 C           5.6870    5.3310    2.1180 C.2     1  LIG1        0.2176
     14 O           5.2430    6.2100    2.8520 O.2     1  LIG1       -0.2755
     15 C           4.8610    4.1180    1.6940 C.3     1  LIG1        0.0517
     16 C           3.7960    3.7440    2.6500 C.ar    1  LIG1       -0.0057
     17 C           3.9180    2.8680    3.7040 C.ar    1  LIG1        0.0512
     18 N           2.7060    2.7980    4.3360 N.ar    1  LIG1       -0.3538
     19 C           1.7950    3.6180    3.7090 C.ar    1  LIG1        0.0507
     20 C           0.4490    3.8640    4.0020 C.ar    1  LIG1        0.0040
     21 C          -0.2320    4.7580    3.1770 C.ar    1  LIG1        0.1228
     22 C           0.3970    5.3820    2.1050 C.ar    1  LIG1       -0.0192
     23 C           1.7440    5.1260    1.8240 C.ar    1  LIG1       -0.0488
     24 C           2.4580    4.2260    2.6410 C.ar    1  LIG1        0.0041
     25 C           5.0550    2.1020    4.1600 C.ar    1  LIG1       -0.0014
     26 C           5.9280    2.6460    5.1010 C.ar    1  LIG1       -0.0526
     27 C           7.0260    1.9070    5.5410 C.ar    1  LIG1       -0.0611
     28 C           7.2490    0.6240    5.0410 C.ar    1  LIG1       -0.0617
     29 C           6.3750    0.0810    4.0990 C.ar    1  LIG1       -0.0611
     30 C           5.2770    0.8200    3.6590 C.ar    1  LIG1       -0.0526
     31 O          -1.5510    5.0280    3.4300 O.3     1  LIG1       -0.4866
     32 C          -1.9730    4.9460    4.7850 C.3     1  LIG1        0.1291
     33 C          -3.1200    5.9130    5.0150 C.3     1  LIG1        0.0031
     34 N          -3.5820    5.8070    6.3980 N.4     1  LIG1        0.2376
     35 C          -2.5030    6.1650    7.3290 C.3     1  LIG1       -0.0318
     36 C          -2.9550    6.0120    8.7830 C.3     1  LIG1       -0.0123
     37 C          -4.2100    6.8310    9.0630 C.3     1  LIG1       -0.0434
     38 C          -5.2940    6.5110    8.0400 C.3     1  LIG1       -0.0123
     39 C          -4.7680    6.6480    6.6100 C.3     1  LIG1       -0.0318
     40 H          10.7568    2.7241    1.4221 H       1  LIG1        0.0621
     41 H          13.0641    1.9570    1.4122 H       1  LIG1        0.0654
     42 H          15.2767    2.2331    2.2702 H       1  LIG1        0.2921
     43 H          14.0547    4.9181    4.2256 H       1  LIG1        0.0654
     44 H          11.7461    5.6816    4.2321 H       1  LIG1        0.0621
     45 H           9.4447    5.1172    3.8038 H       1  LIG1        0.0314
     46 H           9.0599    3.8815    2.5817 H       1  LIG1        0.0314
     47 H           9.5414    5.4058    0.8191 H       1  LIG1        0.0286
     48 H          10.0124    6.6395    2.0192 H       1  LIG1        0.0286
     49 H           7.7603    6.7436    2.8194 H       1  LIG1        0.0495
     50 H           7.9198    7.1072   -0.1664 H       1  LIG1        0.0247
     51 H           8.4521    8.2674    1.0268 H       1  LIG1        0.0247
     52 H           6.7556    7.8727    0.8881 H       1  LIG1        0.0247
     53 H           7.2261    4.5639    0.9994 H       1  LIG1        0.1490
     54 H           5.5220    3.2837    1.5851 H       1  LIG1        0.0408
     55 H           4.3732    4.3834    0.7794 H       1  LIG1        0.0408
     56 H           2.5134    2.2416    5.1250 H       1  LIG1        0.1659
     57 H          -0.0206    3.4023    4.7966 H       1  LIG1        0.0675
     58 H          -0.1337    6.0390    1.5120 H       1  LIG1        0.0654
     59 H           2.2089    5.5905    1.0283 H       1  LIG1        0.0625
     60 H           5.7620    3.5947    5.4717 H       1  LIG1        0.0624
     61 H           7.6735    2.3094    6.2365 H       1  LIG1        0.0618
     62 H           8.0605    0.0766    5.3679 H       1  LIG1        0.0618
     63 H           6.5409   -0.8675    3.7277 H       1  LIG1        0.0618
     64 H           4.6294    0.4182    2.9632 H       1  LIG1        0.0624
     65 H          -1.1572    5.2001    5.4290 H       1  LIG1        0.0751
     66 H          -2.2976    3.9491    4.9986 H       1  LIG1        0.0751
     67 H          -3.9250    5.6747    4.3515 H       1  LIG1        0.0848
     68 H          -2.7851    6.9119    4.8282 H       1  LIG1        0.0848
     69 H          -3.8468    4.8392    6.5811 H       1  LIG1        0.2034
     70 H          -2.2166    7.1816    7.1574 H       1  LIG1        0.0814
     71 H          -1.6763    5.5071    7.1596 H       1  LIG1        0.0814
     72 H          -2.1699    6.3458    9.4288 H       1  LIG1        0.0317
     73 H          -3.1787    4.9807    8.9600 H       1  LIG1        0.0317
     74 H          -3.9705    7.8724    9.0086 H       1  LIG1        0.0269
     75 H          -4.5723    6.5870   10.0398 H       1  LIG1        0.0269
     76 H          -6.1122    7.1869    8.1765 H       1  LIG1        0.0317
     77 H          -5.6093    5.4993    8.1879 H       1  LIG1        0.0317
     78 H          -5.5346    6.3493    5.9259 H       1  LIG1        0.0814
     79 H          -4.4934    7.6691    6.4460 H       1  LIG1        0.0814
@<TRIPOS>BOND
     1     1     7   ar
     2     1     8    1
     3     1     2   ar
     4     2     3   ar
     5     3     4   ar
     6     4     6   ar
     7     4     5    1
     8     6     7   ar
     9     8     9    1
    10     9    10    1
    11    10    12    1
    12    10    11    1
    13    12    13   am
    14    13    15    1
    15    13    14    2
    16    15    16    1
    17    16    24   ar
    18    16    17   ar
    19    17    18   ar
    20    17    25    1
    21    18    19   ar
    22    19    20   ar
    23    19    24   ar
    24    20    21   ar
    25    21    31    1
    26    21    22   ar
    27    22    23   ar
    28    23    24   ar
    29    25    30   ar
    30    25    26   ar
    31    26    27   ar
    32    27    28   ar
    33    28    29   ar
    34    29    30   ar
    35    31    32    1
    36    32    33    1
    37    33    34    1
    38    34    35    1
    39    34    39    1
    40    35    36    1
    41    36    37    1
    42    37    38    1
    43    38    39    1
    44     2    40    1
    45     3    41    1
    46     5    42    1
    47     6    43    1
    48     7    44    1
    49     8    45    1
    50     8    46    1
    51     9    47    1
    52     9    48    1
    53    10    49    1
    54    11    50    1
    55    11    51    1
    56    11    52    1
    57    12    53    1
    58    15    54    1
    59    15    55    1
    60    18    56    1
    61    20    57    1
    62    22    58    1
    63    23    59    1
    64    26    60    1
    65    27    61    1
    66    28    62    1
    67    29    63    1
    68    30    64    1
    69    32    65    1
    70    32    66    1
    71    33    67    1
    72    33    68    1
    73    34    69    1
    74    35    70    1
    75    35    71    1
    76    36    72    1
    77    36    73    1
    78    37    74    1
    79    37    75    1
    80    38    76    1
    81    38    77    1
    82    39    78    1
    83    39    79    1
