REMARK  13 active torsions:
REMARK  status: ('A' for Active; 'I' for Inactive)
REMARK    1  A    between atoms: C_1  and  C_8 
REMARK    2  A    between atoms: C_4  and  O_5 
REMARK    3  A    between atoms: C_8  and  C_9 
REMARK    4  A    between atoms: C_9  and  C_10 
REMARK    5  A    between atoms: C_10  and  N_12 
REMARK    6  A    between atoms: C_10  and  C_11 
REMARK       I    between atoms: N_12  and  C_13 
REMARK    7  A    between atoms: C_13  and  C_15 
REMARK    8  A    between atoms: C_15  and  C_16 
REMARK    9  A    between atoms: C_17  and  C_25 
REMARK   10  A    between atoms: C_21  and  O_31 
REMARK   11  A    between atoms: O_31  and  C_32 
REMARK   12  A    between atoms: C_32  and  C_33 
REMARK   13  A    between atoms: C_33  and  N_34 
ROOT
ATOM      1  C   LIG d   1       3.796   3.744   2.650  0.00  0.00    -0.009 A 
ATOM      2  C   LIG d   1       3.918   2.868   3.704  0.00  0.00     0.050 A 
ATOM      3  N   LIG d   1       2.706   2.798   4.336  0.00  0.00    -0.354 N 
ATOM      4  C   LIG d   1       1.795   3.618   3.709  0.00  0.00     0.046 A 
ATOM      5  C   LIG d   1       0.449   3.864   4.002  0.00  0.00    -0.024 A 
ATOM      6  C   LIG d   1      -0.232   4.758   3.177  0.00  0.00     0.071 A 
ATOM      7  C   LIG d   1       0.397   5.382   2.105  0.00  0.00    -0.050 A 
ATOM      8  C   LIG d   1       1.744   5.126   1.824  0.00  0.00    -0.068 A 
ATOM      9  C   LIG d   1       2.458   4.226   2.641  0.00  0.00    -0.000 A 
ATOM     10  H   LIG d   1       2.513   2.242   5.125  0.00  0.00     0.166 HD
ATOM     11  H   LIG d   1      -0.021   3.402   4.797  0.00  0.00     0.091 H 
ATOM     12  H   LIG d   1      -0.134   6.039   1.512  0.00  0.00     0.087 H 
ATOM     13  H   LIG d   1       2.209   5.590   1.028  0.00  0.00     0.085 H 
ENDROOT
BRANCH   1  14
ATOM     14  C   LIG d   1       4.861   4.118   1.694  0.00  0.00     0.036 C 
ATOM     15  H   LIG d   1       5.522   3.284   1.585  0.00  0.00     0.054 H 
ATOM     16  H   LIG d   1       4.373   4.383   0.779  0.00  0.00     0.054 H 
BRANCH  14  17
ATOM     17  C   LIG d   1       5.687   5.331   2.118  0.00  0.00     0.222 C 
ATOM     18  N   LIG d   1       6.966   5.316   1.579  0.00  0.00    -0.357 N 
ATOM     19  H   LIG d   1       7.226   4.564   0.999  0.00  0.00     0.162 HD
ATOM     20  O   LIG d   1       5.243   6.210   2.852  0.00  0.00    -0.273 OA
BRANCH  18  21
ATOM     21  C   LIG d   1       7.930   6.360   1.835  0.00  0.00     0.009 C 
ATOM     22  H   LIG d   1       7.760   6.744   2.819  0.00  0.00     0.071 H 
BRANCH  21  23
ATOM     23  C   LIG d   1       9.368   5.816   1.792  0.00  0.00    -0.043 C 
ATOM     24  H   LIG d   1       9.541   5.406   0.819  0.00  0.00     0.036 H 
ATOM     25  H   LIG d   1      10.012   6.639   2.019  0.00  0.00     0.036 H 
BRANCH  23  26
ATOM     26  C   LIG d   1       9.667   4.726   2.833  0.00  0.00    -0.039 C 
ATOM     27  H   LIG d   1       9.445   5.117   3.804  0.00  0.00     0.040 H 
ATOM     28  H   LIG d   1       9.060   3.881   2.582  0.00  0.00     0.040 H 
BRANCH  26  29
ATOM     29  C   LIG d   1      11.099   4.253   2.828  0.00  0.00    -0.058 A 
ATOM     30  C   LIG d   1      12.030   4.890   3.634  0.00  0.00    -0.074 A 
ATOM     31  C   LIG d   1      13.354   4.451   3.629  0.00  0.00    -0.051 A 
ATOM     32  H   LIG d   1      11.746   5.682   4.232  0.00  0.00     0.084 H 
ATOM     33  C   LIG d   1      13.731   3.381   2.818  0.00  0.00     0.065 A 
ATOM     34  H   LIG d   1      14.055   4.918   4.226  0.00  0.00     0.087 H 
ATOM     35  C   LIG d   1      12.785   2.749   2.012  0.00  0.00    -0.051 A 
ATOM     36  C   LIG d   1      11.461   3.188   2.017  0.00  0.00    -0.074 A 
ATOM     37  H   LIG d   1      13.064   1.957   1.412  0.00  0.00     0.087 H 
ATOM     38  H   LIG d   1      10.757   2.724   1.422  0.00  0.00     0.084 H 
BRANCH  33  39
ATOM     39  O   LIG d   1      15.023   2.952   2.815  0.00  0.00    -0.361 OA
ATOM     40  H   LIG d   1      15.277   2.233   2.270  0.00  0.00     0.217 HD
ENDBRANCH  33  39
ENDBRANCH  26  29
ENDBRANCH  23  26
ENDBRANCH  21  23
BRANCH  21  41
ATOM     41  C   LIG d   1       7.751   7.486   0.820  0.00  0.00    -0.057 C 
ATOM     42  H   LIG d   1       7.920   7.107  -0.166  0.00  0.00     0.030 H 
ATOM     43  H   LIG d   1       8.452   8.267   1.027  0.00  0.00     0.030 H 
ATOM     44  H   LIG d   1       6.756   7.873   0.888  0.00  0.00     0.030 H 
ENDBRANCH  21  41
ENDBRANCH  18  21
ENDBRANCH  14  17
ENDBRANCH   1  14
BRANCH   2  45
ATOM     45  C   LIG d   1       5.055   2.102   4.160  0.00  0.00    -0.009 A 
ATOM     46  C   LIG d   1       5.277   0.820   3.659  0.00  0.00    -0.071 A 
ATOM     47  C   LIG d   1       6.375   0.081   4.099  0.00  0.00    -0.082 A 
ATOM     48  H   LIG d   1       4.629   0.418   2.963  0.00  0.00     0.084 H 
ATOM     49  C   LIG d   1       7.249   0.624   5.041  0.00  0.00    -0.083 A 
ATOM     50  H   LIG d   1       6.541  -0.868   3.728  0.00  0.00     0.083 H 
ATOM     51  C   LIG d   1       7.026   1.907   5.541  0.00  0.00    -0.082 A 
ATOM     52  H   LIG d   1       8.060   0.077   5.368  0.00  0.00     0.083 H 
ATOM     53  C   LIG d   1       5.928   2.646   5.101  0.00  0.00    -0.071 A 
ATOM     54  H   LIG d   1       7.673   2.309   6.237  0.00  0.00     0.083 H 
ATOM     55  H   LIG d   1       5.762   3.595   5.472  0.00  0.00     0.084 H 
ENDBRANCH   2  45
BRANCH   6  56
ATOM     56  O   LIG d   1      -1.551   5.028   3.430  0.00  0.00    -0.349 OA
BRANCH  56  57
ATOM     57  C   LIG d   1      -1.973   4.946   4.785  0.00  0.00     0.049 C 
ATOM     58  H   LIG d   1      -1.157   5.200   5.429  0.00  0.00     0.077 H 
ATOM     59  H   LIG d   1      -2.298   3.949   4.999  0.00  0.00     0.077 H 
BRANCH  57  60
ATOM     60  C   LIG d   1      -3.120   5.913   5.015  0.00  0.00     0.103 C 
ATOM     61  H   LIG d   1      -3.925   5.675   4.351  0.00  0.00     0.079 H 
ATOM     62  H   LIG d   1      -2.785   6.912   4.828  0.00  0.00     0.079 H 
BRANCH  60  63
ATOM     63  N   LIG d   1      -3.582   5.807   6.398  0.00  0.00    -0.069 N 
ATOM     64  C   LIG d   1      -2.503   6.165   7.329  0.00  0.00     0.084 C 
ATOM     65  C   LIG d   1      -2.955   6.012   8.783  0.00  0.00    -0.042 C 
ATOM     66  H   LIG d   1      -2.217   7.182   7.157  0.00  0.00     0.076 H 
ATOM     67  H   LIG d   1      -1.676   5.507   7.160  0.00  0.00     0.076 H 
ATOM     68  C   LIG d   1      -4.210   6.831   9.063  0.00  0.00    -0.062 C 
ATOM     69  H   LIG d   1      -2.170   6.346   9.429  0.00  0.00     0.035 H 
ATOM     70  H   LIG d   1      -3.179   4.981   8.960  0.00  0.00     0.035 H 
ATOM     71  C   LIG d   1      -5.294   6.511   8.040  0.00  0.00    -0.042 C 
ATOM     72  H   LIG d   1      -3.970   7.872   9.009  0.00  0.00     0.033 H 
ATOM     73  H   LIG d   1      -4.572   6.587  10.040  0.00  0.00     0.033 H 
ATOM     74  C   LIG d   1      -4.768   6.648   6.610  0.00  0.00     0.084 C 
ATOM     75  H   LIG d   1      -6.112   7.187   8.177  0.00  0.00     0.035 H 
ATOM     76  H   LIG d   1      -5.609   5.499   8.188  0.00  0.00     0.035 H 
ATOM     77  H   LIG d   1      -5.535   6.349   5.926  0.00  0.00     0.076 H 
ATOM     78  H   LIG d   1      -4.493   7.669   6.446  0.00  0.00     0.076 H 
ATOM     79  H   LIG d   1      -3.847   4.839   6.581  0.00  0.00     0.280 HD
ENDBRANCH  60  63
ENDBRANCH  57  60
ENDBRANCH  56  57
ENDBRANCH   6  56
TORSDOF 13
