@<TRIPOS>MOLECULE
IOK
 56 59 0 0 0
SMALL
GASTEIGER

@<TRIPOS>ATOM
      1 C          -0.9730    6.6540    3.0630 C.ar    1  LIG1       -0.0471
      2 C          -0.2520    7.8120    3.3150 C.ar    1  LIG1       -0.0551
      3 C           0.7490    8.2030    2.4260 C.ar    1  LIG1       -0.0199
      4 C           1.0170    7.4310    1.2950 C.ar    1  LIG1        0.1169
      5 O           1.9930    7.8130    0.4260 O.3     1  LIG1       -0.5068
      6 C           0.2850    6.2680    1.0540 C.ar    1  LIG1       -0.0199
      7 C          -0.7160    5.8780    1.9440 C.ar    1  LIG1       -0.0551
      8 C          -2.0560    6.2320    4.0250 C.3     1  LIG1       -0.0260
      9 C          -1.5630    5.3140    5.1530 C.3     1  LIG1       -0.0308
     10 C          -2.6690    4.8180    6.0990 C.3     1  LIG1        0.0206
     11 C          -2.0980    3.8550    7.1370 C.3     1  LIG1       -0.0466
     12 N          -3.3240    5.9190    6.7650 N.am    1  LIG1       -0.3124
     13 C          -4.6830    6.1680    6.6360 C.2     1  LIG1        0.2176
     14 O          -5.4610    5.5000    5.9610 O.2     1  LIG1       -0.2755
     15 C          -5.1310    7.3860    7.4420 C.3     1  LIG1        0.0517
     16 C          -6.3330    8.0610    6.9060 C.ar    1  LIG1       -0.0057
     17 C          -6.3510    9.0830    5.9850 C.ar    1  LIG1        0.0512
     18 N          -7.6580    9.4220    5.7580 N.ar    1  LIG1       -0.3539
     19 C          -8.4920    8.6350    6.5180 C.ar    1  LIG1        0.0472
     20 C          -9.8880    8.6240    6.6110 C.ar    1  LIG1       -0.0378
     21 C         -10.4710    7.6980    7.4810 C.ar    1  LIG1       -0.0598
     22 C          -9.6870    6.8200    8.2260 C.ar    1  LIG1       -0.0611
     23 C          -8.2920    6.8420    8.1230 C.ar    1  LIG1       -0.0523
     24 C          -7.6810    7.7670    7.2520 C.ar    1  LIG1        0.0039
     25 C          -5.2660    9.7570    5.3120 C.ar    1  LIG1       -0.0014
     26 C          -4.7960    9.2740    4.0910 C.ar    1  LIG1       -0.0526
     27 C          -3.7490    9.9260    3.4400 C.ar    1  LIG1       -0.0611
     28 C          -3.1710   11.0600    4.0110 C.ar    1  LIG1       -0.0617
     29 C          -3.6420   11.5430    5.2320 C.ar    1  LIG1       -0.0611
     30 C          -4.6900   10.8910    5.8830 C.ar    1  LIG1       -0.0526
     31 H          -0.4545    8.3792    4.1530 H       1  LIG1        0.0621
     32 H           1.2911    9.0628    2.6046 H       1  LIG1        0.0654
     33 H           2.4848    8.5940    0.5876 H       1  LIG1        0.2921
     34 H           0.4839    5.6966    0.2179 H       1  LIG1        0.0654
     35 H          -1.2606    5.0187    1.7705 H       1  LIG1        0.0621
     36 H          -2.8123    5.7127    3.4742 H       1  LIG1        0.0314
     37 H          -2.4244    7.1233    4.4885 H       1  LIG1        0.0314
     38 H          -0.8438    5.8536    5.7331 H       1  LIG1        0.0286
     39 H          -1.1527    4.4454    4.6818 H       1  LIG1        0.0286
     40 H          -3.3936    4.3033    5.5033 H       1  LIG1        0.0495
     41 H          -1.3725    4.3650    7.7357 H       1  LIG1        0.0247
     42 H          -1.6333    3.0292    6.6399 H       1  LIG1        0.0247
     43 H          -2.8880    3.4958    7.7629 H       1  LIG1        0.0247
     44 H          -2.7854    6.5163    7.3328 H       1  LIG1        0.1490
     45 H          -4.3278    8.0928    7.4559 H       1  LIG1        0.0408
     46 H          -5.3883    7.0304    8.4178 H       1  LIG1        0.0408
     47 H          -7.9577   10.1273    5.1400 H       1  LIG1        0.1659
     48 H         -10.4661    9.2756    6.0576 H       1  LIG1        0.0638
     49 H         -11.4984    7.6643    7.5728 H       1  LIG1        0.0618
     50 H         -10.1407    6.1452    8.8615 H       1  LIG1        0.0618
     51 H          -7.7171    6.1889    8.6780 H       1  LIG1        0.0624
     52 H          -5.2228    8.4344    3.6693 H       1  LIG1        0.0624
     53 H          -3.4019    9.5695    2.5359 H       1  LIG1        0.0618
     54 H          -2.3951   11.5415    3.5302 H       1  LIG1        0.0618
     55 H          -3.2153   12.3826    5.6539 H       1  LIG1        0.0618
     56 H          -5.0384   11.2479    6.7864 H       1  LIG1        0.0624
@<TRIPOS>BOND
     1     1     7   ar
     2     1     8    1
     3     1     2   ar
     4     2     3   ar
     5     3     4   ar
     6     4     6   ar
     7     4     5    1
     8     6     7   ar
     9     8     9    1
    10     9    10    1
    11    10    11    1
    12    10    12    1
    13    12    13   am
    14    13    14    2
    15    13    15    1
    16    15    16    1
    17    16    24   ar
    18    16    17   ar
    19    17    18   ar
    20    17    25    1
    21    18    19   ar
    22    19    24   ar
    23    19    20   ar
    24    20    21   ar
    25    21    22   ar
    26    22    23   ar
    27    23    24   ar
    28    25    26   ar
    29    25    30   ar
    30    26    27   ar
    31    27    28   ar
    32    28    29   ar
    33    29    30   ar
    34     2    31    1
    35     3    32    1
    36     5    33    1
    37     6    34    1
    38     7    35    1
    39     8    36    1
    40     8    37    1
    41     9    38    1
    42     9    39    1
    43    10    40    1
    44    11    41    1
    45    11    42    1
    46    11    43    1
    47    12    44    1
    48    15    45    1
    49    15    46    1
    50    18    47    1
    51    20    48    1
    52    21    49    1
    53    22    50    1
    54    23    51    1
    55    26    52    1
    56    27    53    1
    57    28    54    1
    58    29    55    1
    59    30    56    1
