REMARK  9 active torsions:
REMARK  status: ('A' for Active; 'I' for Inactive)
REMARK    1  A    between atoms: C_1  and  C_8 
REMARK    2  A    between atoms: C_4  and  O_5 
REMARK    3  A    between atoms: C_8  and  C_9 
REMARK    4  A    between atoms: C_9  and  C_10 
REMARK    5  A    between atoms: C_10  and  C_11 
REMARK    6  A    between atoms: C_10  and  N_12 
REMARK       I    between atoms: N_12  and  C_13 
REMARK    7  A    between atoms: C_13  and  C_15 
REMARK    8  A    between atoms: C_15  and  C_16 
REMARK    9  A    between atoms: C_17  and  C_25 
ROOT
ATOM      1  N   LIG d   1      -3.324   5.919   6.765  0.00  0.00    -0.357 N 
ATOM      2  C   LIG d   1      -4.683   6.168   6.636  0.00  0.00     0.222 C 
ATOM      3  O   LIG d   1      -5.461   5.500   5.961  0.00  0.00    -0.273 OA
ATOM      4  H   LIG d   1      -2.785   6.516   7.333  0.00  0.00     0.162 HD
ENDROOT
BRANCH   2   5
ATOM      5  C   LIG d   1      -5.131   7.386   7.442  0.00  0.00     0.036 C 
ATOM      6  H   LIG d   1      -4.328   8.093   7.456  0.00  0.00     0.054 H 
ATOM      7  H   LIG d   1      -5.388   7.030   8.418  0.00  0.00     0.054 H 
BRANCH   5   8
ATOM      8  C   LIG d   1      -6.333   8.061   6.906  0.00  0.00    -0.009 A 
ATOM      9  C   LIG d   1      -7.681   7.767   7.252  0.00  0.00    -0.000 A 
ATOM     10  C   LIG d   1      -8.492   8.635   6.518  0.00  0.00     0.043 A 
ATOM     11  C   LIG d   1      -8.292   6.842   8.123  0.00  0.00    -0.070 A 
ATOM     12  N   LIG d   1      -7.658   9.422   5.758  0.00  0.00    -0.354 N 
ATOM     13  C   LIG d   1      -9.888   8.624   6.611  0.00  0.00    -0.056 A 
ATOM     14  C   LIG d   1      -6.351   9.083   5.985  0.00  0.00     0.050 A 
ATOM     15  H   LIG d   1      -7.958  10.127   5.140  0.00  0.00     0.166 HD
ATOM     16  C   LIG d   1     -10.471   7.698   7.481  0.00  0.00    -0.081 A 
ATOM     17  H   LIG d   1     -10.466   9.276   6.058  0.00  0.00     0.086 H 
ATOM     18  C   LIG d   1      -9.687   6.820   8.226  0.00  0.00    -0.082 A 
ATOM     19  H   LIG d   1     -11.498   7.664   7.573  0.00  0.00     0.083 H 
ATOM     20  H   LIG d   1     -10.141   6.145   8.861  0.00  0.00     0.083 H 
ATOM     21  H   LIG d   1      -7.717   6.189   8.678  0.00  0.00     0.084 H 
BRANCH  14  22
ATOM     22  C   LIG d   1      -5.266   9.757   5.312  0.00  0.00    -0.009 A 
ATOM     23  C   LIG d   1      -4.796   9.274   4.091  0.00  0.00    -0.071 A 
ATOM     24  C   LIG d   1      -3.749   9.926   3.440  0.00  0.00    -0.082 A 
ATOM     25  H   LIG d   1      -5.223   8.434   3.669  0.00  0.00     0.084 H 
ATOM     26  C   LIG d   1      -3.171  11.060   4.011  0.00  0.00    -0.083 A 
ATOM     27  H   LIG d   1      -3.402   9.569   2.536  0.00  0.00     0.083 H 
ATOM     28  C   LIG d   1      -3.642  11.543   5.232  0.00  0.00    -0.082 A 
ATOM     29  H   LIG d   1      -2.395  11.541   3.530  0.00  0.00     0.083 H 
ATOM     30  C   LIG d   1      -4.690  10.891   5.883  0.00  0.00    -0.071 A 
ATOM     31  H   LIG d   1      -3.215  12.383   5.654  0.00  0.00     0.083 H 
ATOM     32  H   LIG d   1      -5.038  11.248   6.786  0.00  0.00     0.084 H 
ENDBRANCH  14  22
ENDBRANCH   5   8
ENDBRANCH   2   5
BRANCH   1  33
ATOM     33  C   LIG d   1      -2.669   4.818   6.099  0.00  0.00     0.009 C 
ATOM     34  H   LIG d   1      -3.394   4.303   5.503  0.00  0.00     0.071 H 
BRANCH  33  35
ATOM     35  C   LIG d   1      -1.563   5.314   5.153  0.00  0.00    -0.043 C 
ATOM     36  H   LIG d   1      -0.844   5.854   5.733  0.00  0.00     0.036 H 
ATOM     37  H   LIG d   1      -1.153   4.445   4.682  0.00  0.00     0.036 H 
BRANCH  35  38
ATOM     38  C   LIG d   1      -2.056   6.232   4.025  0.00  0.00    -0.039 C 
ATOM     39  H   LIG d   1      -2.812   5.713   3.474  0.00  0.00     0.040 H 
ATOM     40  H   LIG d   1      -2.424   7.123   4.489  0.00  0.00     0.040 H 
BRANCH  38  41
ATOM     41  C   LIG d   1      -0.973   6.654   3.063  0.00  0.00    -0.058 A 
ATOM     42  C   LIG d   1      -0.716   5.878   1.944  0.00  0.00    -0.074 A 
ATOM     43  C   LIG d   1       0.285   6.268   1.054  0.00  0.00    -0.051 A 
ATOM     44  H   LIG d   1      -1.261   5.019   1.770  0.00  0.00     0.084 H 
ATOM     45  C   LIG d   1       1.017   7.431   1.295  0.00  0.00     0.065 A 
ATOM     46  H   LIG d   1       0.484   5.697   0.218  0.00  0.00     0.087 H 
ATOM     47  C   LIG d   1       0.749   8.203   2.426  0.00  0.00    -0.051 A 
ATOM     48  C   LIG d   1      -0.252   7.812   3.315  0.00  0.00    -0.074 A 
ATOM     49  H   LIG d   1       1.291   9.063   2.605  0.00  0.00     0.087 H 
ATOM     50  H   LIG d   1      -0.455   8.379   4.153  0.00  0.00     0.084 H 
BRANCH  45  51
ATOM     51  O   LIG d   1       1.993   7.813   0.426  0.00  0.00    -0.361 OA
ATOM     52  H   LIG d   1       2.485   8.594   0.588  0.00  0.00     0.217 HD
ENDBRANCH  45  51
ENDBRANCH  38  41
ENDBRANCH  35  38
ENDBRANCH  33  35
BRANCH  33  53
ATOM     53  C   LIG d   1      -2.098   3.855   7.137  0.00  0.00    -0.057 C 
ATOM     54  H   LIG d   1      -1.373   4.365   7.736  0.00  0.00     0.030 H 
ATOM     55  H   LIG d   1      -1.633   3.029   6.640  0.00  0.00     0.030 H 
ATOM     56  H   LIG d   1      -2.888   3.496   7.763  0.00  0.00     0.030 H 
ENDBRANCH  33  53
ENDBRANCH   1  33
TORSDOF 9
