@<TRIPOS>MOLECULE
J2Z
 43 46 0 0 0
SMALL
GASTEIGER

@<TRIPOS>ATOM
      1 O          -4.4920   -1.5710    0.0340 O.2     1  LIG1       -0.2941
      2 C          -3.7120   -0.6590    0.1710 C.2     1  LIG1        0.1676
      3 C          -4.0430    0.8270    0.2560 C.3     1  LIG1        0.1138
      4 O          -4.7680    1.2350   -0.9050 O.3     1  LIG1       -0.3843
      5 C          -2.6860    1.5800    0.3280 C.3     1  LIG1       -0.0159
      6 C          -1.7170    0.5810   -0.3150 C.3     1  LIG1       -0.0227
      7 C          -2.2220   -0.7580    0.3000 C.3     1  LIG1        0.0320
      8 C          -1.8440   -0.8110    1.7810 C.3     1  LIG1       -0.0525
      9 C          -0.2630    0.7140    0.0930 C.3     1  LIG1       -0.0301
     10 C           0.4990   -0.4260   -0.5950 C.3     1  LIG1       -0.0124
     11 C          -0.0270   -1.7870   -0.1630 C.3     1  LIG1       -0.0450
     12 C          -1.5380   -1.8980   -0.4230 C.3     1  LIG1       -0.0400
     13 C           0.3400    2.0360   -0.3820 C.3     1  LIG1       -0.0454
     14 C           1.7370    2.1690    0.2240 C.3     1  LIG1       -0.0270
     15 C           2.5410    0.9110    0.0230 C.ar    1  LIG1       -0.0405
     16 C           1.9730   -0.2900   -0.3470 C.ar    1  LIG1       -0.0406
     17 C           3.9130    0.9860    0.2250 C.ar    1  LIG1       -0.0167
     18 C           4.7100   -0.1340    0.0650 C.ar    1  LIG1        0.1171
     19 O           6.0520   -0.0500    0.2640 O.3     1  LIG1       -0.5068
     20 C           4.1340   -1.3420   -0.2990 C.ar    1  LIG1       -0.0199
     21 C           2.7730   -1.4140   -0.5020 C.ar    1  LIG1       -0.0546
     22 H          -4.6495    1.0395    1.1115 H       1  LIG1        0.0673
     23 H          -4.2388    1.0528   -1.6973 H       1  LIG1        0.2104
     24 H          -2.4119    1.7868    1.3414 H       1  LIG1        0.0297
     25 H          -2.7009    2.5329   -0.1584 H       1  LIG1        0.0297
     26 H          -1.7198    0.6991   -1.3785 H       1  LIG1        0.0314
     27 H          -2.3236   -0.0078    2.3005 H       1  LIG1        0.0239
     28 H          -0.7829   -0.7177    1.8818 H       1  LIG1        0.0239
     29 H          -2.1611   -1.7445    2.1969 H       1  LIG1        0.0239
     30 H          -0.1925    0.6787    1.1601 H       1  LIG1        0.0310
     31 H           0.3348   -0.3547   -1.6499 H       1  LIG1        0.0352
     32 H           0.1594   -1.9191    0.8823 H       1  LIG1        0.0271
     33 H           0.4743   -2.5433   -0.7301 H       1  LIG1        0.0271
     34 H          -1.7317   -1.8302   -1.4731 H       1  LIG1        0.0275
     35 H          -1.9079   -2.8377   -0.0693 H       1  LIG1        0.0275
     36 H          -0.2739    2.8508   -0.0592 H       1  LIG1        0.0271
     37 H           0.3974    2.0533   -1.4503 H       1  LIG1        0.0271
     38 H           1.6455    2.3607    1.2727 H       1  LIG1        0.0313
     39 H           2.2426    2.9755   -0.2648 H       1  LIG1        0.0313
     40 H           4.3418    1.8845    0.4967 H       1  LIG1        0.0657
     41 H           6.4389    0.7672    0.5099 H       1  LIG1        0.2921
     42 H           4.7214   -2.1822   -0.4172 H       1  LIG1        0.0654
     43 H           2.3439   -2.3129   -0.7721 H       1  LIG1        0.0622
@<TRIPOS>BOND
     1     1     2    2
     2     2     7    1
     3     3     5    1
     4     3     2    1
     5     4     3    1
     6     5     6    1
     7     6     7    1
     8     6     9    1
     9     7    12    1
    10     8     7    1
    11     9    10    1
    12    10    11    1
    13    10    16    1
    14    12    11    1
    15    13     9    1
    16    13    14    1
    17    14    15    1
    18    15    16   ar
    19    15    17   ar
    20    16    21   ar
    21    17    18   ar
    22    18    20   ar
    23    18    19    1
    24    21    20   ar
    25     3    22    1
    26     4    23    1
    27     5    24    1
    28     5    25    1
    29     6    26    1
    30     8    27    1
    31     8    28    1
    32     8    29    1
    33     9    30    1
    34    10    31    1
    35    11    32    1
    36    11    33    1
    37    12    34    1
    38    12    35    1
    39    13    36    1
    40    13    37    1
    41    14    38    1
    42    14    39    1
    43    17    40    1
    44    19    41    1
    45    20    42    1
    46    21    43    1
