REMARK  3 active torsions:
REMARK  status: ('A' for Active; 'I' for Inactive)
REMARK    1  A    between atoms: O_4  and  C_3 
REMARK    2  A    between atoms: C_8  and  C_7 
REMARK    3  A    between atoms: C_18  and  O_19 
ROOT
ATOM      1  O   LIG d   1      -4.492  -1.571   0.034  0.00  0.00    -0.294 OA
ATOM      2  C   LIG d   1      -3.712  -0.659   0.171  0.00  0.00     0.164 C 
ATOM      3  C   LIG d   1      -4.043   0.827   0.256  0.00  0.00     0.094 C 
ATOM      4  C   LIG d   1      -2.686   1.580   0.328  0.00  0.00    -0.030 C 
ATOM      5  C   LIG d   1      -1.717   0.581  -0.315  0.00  0.00    -0.034 C 
ATOM      6  C   LIG d   1      -2.222  -0.758   0.300  0.00  0.00     0.024 C 
ATOM      7  C   LIG d   1      -0.263   0.714   0.093  0.00  0.00    -0.042 C 
ATOM      8  C   LIG d   1       0.499  -0.426  -0.595  0.00  0.00    -0.024 C 
ATOM      9  C   LIG d   1      -0.027  -1.787  -0.163  0.00  0.00    -0.056 C 
ATOM     10  C   LIG d   1      -1.538  -1.898  -0.423  0.00  0.00    -0.051 C 
ATOM     11  C   LIG d   1       0.340   2.036  -0.382  0.00  0.00    -0.057 C 
ATOM     12  C   LIG d   1       1.737   2.169   0.224  0.00  0.00    -0.040 C 
ATOM     13  C   LIG d   1       2.541   0.911   0.023  0.00  0.00    -0.049 A 
ATOM     14  C   LIG d   1       1.973  -0.290  -0.347  0.00  0.00    -0.047 A 
ATOM     15  C   LIG d   1       3.913   0.986   0.225  0.00  0.00    -0.044 A 
ATOM     16  C   LIG d   1       4.710  -0.134   0.065  0.00  0.00     0.066 A 
ATOM     17  C   LIG d   1       4.134  -1.342  -0.299  0.00  0.00    -0.051 A 
ATOM     18  C   LIG d   1       2.773  -1.414  -0.502  0.00  0.00    -0.073 A 
ATOM     19  H   LIG d   1      -4.649   1.040   1.111  0.00  0.00     0.095 H 
ATOM     20  H   LIG d   1      -2.412   1.787   1.341  0.00  0.00     0.038 H 
ATOM     21  H   LIG d   1      -2.701   2.533  -0.158  0.00  0.00     0.038 H 
ATOM     22  H   LIG d   1      -1.720   0.699  -1.379  0.00  0.00     0.042 H 
ATOM     23  H   LIG d   1      -0.193   0.679   1.160  0.00  0.00     0.041 H 
ATOM     24  H   LIG d   1       0.335  -0.355  -1.650  0.00  0.00     0.048 H 
ATOM     25  H   LIG d   1       0.159  -1.919   0.882  0.00  0.00     0.034 H 
ATOM     26  H   LIG d   1       0.474  -2.543  -0.730  0.00  0.00     0.034 H 
ATOM     27  H   LIG d   1      -1.732  -1.830  -1.473  0.00  0.00     0.034 H 
ATOM     28  H   LIG d   1      -1.908  -2.838  -0.069  0.00  0.00     0.034 H 
ATOM     29  H   LIG d   1      -0.274   2.851  -0.059  0.00  0.00     0.034 H 
ATOM     30  H   LIG d   1       0.397   2.053  -1.450  0.00  0.00     0.034 H 
ATOM     31  H   LIG d   1       1.645   2.361   1.273  0.00  0.00     0.040 H 
ATOM     32  H   LIG d   1       2.243   2.975  -0.265  0.00  0.00     0.040 H 
ATOM     33  H   LIG d   1       4.342   1.885   0.497  0.00  0.00     0.088 H 
ATOM     34  H   LIG d   1       4.721  -2.182  -0.417  0.00  0.00     0.087 H 
ATOM     35  H   LIG d   1       2.344  -2.313  -0.772  0.00  0.00     0.084 H 
ENDROOT
BRANCH   6  36
ATOM     36  C   LIG d   1      -1.844  -0.811   1.781  0.00  0.00    -0.062 C 
ATOM     37  H   LIG d   1      -2.324  -0.008   2.300  0.00  0.00     0.029 H 
ATOM     38  H   LIG d   1      -0.783  -0.718   1.882  0.00  0.00     0.029 H 
ATOM     39  H   LIG d   1      -2.161  -1.744   2.197  0.00  0.00     0.029 H 
ENDBRANCH   6  36
BRANCH   3  40
ATOM     40  O   LIG d   1      -4.768   1.235  -0.905  0.00  0.00    -0.388 OA
ATOM     41  H   LIG d   1      -4.239   1.053  -1.697  0.00  0.00     0.210 HD
ENDBRANCH   3  40
BRANCH  16  42
ATOM     42  O   LIG d   1       6.052  -0.050   0.264  0.00  0.00    -0.361 OA
ATOM     43  H   LIG d   1       6.439   0.767   0.510  0.00  0.00     0.217 HD
ENDBRANCH  16  42
TORSDOF 3
