REMARK  2 active torsions:
REMARK  status: ('A' for Active; 'I' for Inactive)
REMARK    1  A    between atoms: C_4  and  C_3 
REMARK    2  A    between atoms: C_18  and  O_6 
ROOT
ATOM      1  C   LIG d   1       0.216  -0.404  -0.631  0.00  0.00    -0.024 C 
ATOM      2  C   LIG d   1      -1.892  -1.768  -0.440  0.00  0.00    -0.051 C 
ATOM      3  C   LIG d   1      -2.539  -0.559   0.200  0.00  0.00     0.021 C 
ATOM      4  O   LIG d   1      -4.838  -1.288  -0.065  0.00  0.00    -0.297 OA
ATOM      5  C   LIG d   1      -4.021  -0.404   0.035  0.00  0.00     0.135 C 
ATOM      6  C   LIG d   1      -4.286   1.098   0.019  0.00  0.00    -0.009 C 
ATOM      7  C   LIG d   1      -2.898   1.794   0.077  0.00  0.00    -0.054 C 
ATOM      8  C   LIG d   1      -1.960   0.715  -0.477  0.00  0.00    -0.036 C 
ATOM      9  C   LIG d   1      -0.513   0.809  -0.039  0.00  0.00    -0.042 C 
ATOM     10  C   LIG d   1      -0.384  -1.711  -0.133  0.00  0.00    -0.056 C 
ATOM     11  C   LIG d   1       0.163   2.071  -0.577  0.00  0.00    -0.057 C 
ATOM     12  C   LIG d   1       1.545   2.183   0.066  0.00  0.00    -0.040 C 
ATOM     13  C   LIG d   1       2.296   0.880  -0.024  0.00  0.00    -0.049 A 
ATOM     14  C   LIG d   1       1.686  -0.316  -0.338  0.00  0.00    -0.047 A 
ATOM     15  C   LIG d   1       3.662   0.907   0.227  0.00  0.00    -0.044 A 
ATOM     16  C   LIG d   1       4.411  -0.255   0.169  0.00  0.00     0.066 A 
ATOM     17  C   LIG d   1       3.793  -1.458  -0.142  0.00  0.00    -0.051 A 
ATOM     18  C   LIG d   1       2.438  -1.483  -0.394  0.00  0.00    -0.073 A 
ATOM     19  H   LIG d   1       0.088  -0.393  -1.693  0.00  0.00     0.048 H 
ATOM     20  H   LIG d   1      -2.313  -2.664  -0.034  0.00  0.00     0.034 H 
ATOM     21  H   LIG d   1      -2.059  -1.766  -1.497  0.00  0.00     0.034 H 
ATOM     22  H   LIG d   1      -4.800   1.373  -0.878  0.00  0.00     0.044 H 
ATOM     23  H   LIG d   1      -4.899   1.391   0.846  0.00  0.00     0.044 H 
ATOM     24  H   LIG d   1      -2.638   2.053   1.082  0.00  0.00     0.034 H 
ATOM     25  H   LIG d   1      -2.859   2.713  -0.469  0.00  0.00     0.034 H 
ATOM     26  H   LIG d   1      -1.931   0.768  -1.545  0.00  0.00     0.042 H 
ATOM     27  H   LIG d   1      -0.473   0.838   1.030  0.00  0.00     0.041 H 
ATOM     28  H   LIG d   1      -0.237  -1.785   0.924  0.00  0.00     0.034 H 
ATOM     29  H   LIG d   1       0.100  -2.525  -0.632  0.00  0.00     0.034 H 
ATOM     30  H   LIG d   1      -0.423   2.930  -0.328  0.00  0.00     0.034 H 
ATOM     31  H   LIG d   1       0.254   2.017  -1.642  0.00  0.00     0.034 H 
ATOM     32  H   LIG d   1       1.430   2.449   1.096  0.00  0.00     0.040 H 
ATOM     33  H   LIG d   1       2.102   2.932  -0.458  0.00  0.00     0.040 H 
ATOM     34  H   LIG d   1       4.122   1.801   0.459  0.00  0.00     0.088 H 
ATOM     35  H   LIG d   1       4.345  -2.329  -0.184  0.00  0.00     0.087 H 
ATOM     36  H   LIG d   1       1.978  -2.377  -0.626  0.00  0.00     0.084 H 
ENDROOT
BRANCH   3  37
ATOM     37  C   LIG d   1      -2.202  -0.535   1.692  0.00  0.00    -0.062 C 
ATOM     38  H   LIG d   1      -1.145  -0.645   1.821  0.00  0.00     0.029 H 
ATOM     39  H   LIG d   1      -2.707  -1.339   2.185  0.00  0.00     0.029 H 
ATOM     40  H   LIG d   1      -2.518   0.396   2.114  0.00  0.00     0.029 H 
ENDBRANCH   3  37
BRANCH  16  41
ATOM     41  O   LIG d   1       5.747  -0.218   0.415  0.00  0.00    -0.361 OA
ATOM     42  H   LIG d   1       6.162   0.595   0.625  0.00  0.00     0.217 HD
ENDBRANCH  16  41
TORSDOF 2
