@<TRIPOS>MOLECULE
J3Z
 42 45 0 0 0
SMALL
GASTEIGER

@<TRIPOS>ATOM
      1 C           0.2160   -0.4040   -0.6310 C.3     1  LIG1       -0.0124
      2 C          -1.8920   -1.7680   -0.4400 C.3     1  LIG1       -0.0401
      3 C          -2.5390   -0.5590    0.2000 C.3     1  LIG1        0.0293
      4 C          -2.2020   -0.5350    1.6920 C.3     1  LIG1       -0.0526
      5 O          -4.8380   -1.2880   -0.0650 O.2     1  LIG1       -0.2968
      6 O           5.7470   -0.2180    0.4150 O.3     1  LIG1       -0.5068
      7 C          -4.0210   -0.4040    0.0350 C.2     1  LIG1        0.1395
      8 C          -4.2860    1.0980    0.0190 C.3     1  LIG1        0.0067
      9 C          -2.8980    1.7940    0.0770 C.3     1  LIG1       -0.0424
     10 C          -1.9600    0.7150   -0.4770 C.3     1  LIG1       -0.0252
     11 C          -0.5130    0.8090   -0.0390 C.3     1  LIG1       -0.0302
     12 C          -0.3840   -1.7110   -0.1330 C.3     1  LIG1       -0.0450
     13 C           0.1630    2.0710   -0.5770 C.3     1  LIG1       -0.0454
     14 C           1.5450    2.1830    0.0660 C.3     1  LIG1       -0.0270
     15 C           2.2960    0.8800   -0.0240 C.ar    1  LIG1       -0.0405
     16 C           1.6860   -0.3160   -0.3380 C.ar    1  LIG1       -0.0406
     17 C           3.6620    0.9070    0.2270 C.ar    1  LIG1       -0.0167
     18 C           4.4110   -0.2550    0.1690 C.ar    1  LIG1        0.1171
     19 C           3.7930   -1.4580   -0.1420 C.ar    1  LIG1       -0.0199
     20 C           2.4380   -1.4830   -0.3940 C.ar    1  LIG1       -0.0546
     21 H           0.0879   -0.3929   -1.6932 H       1  LIG1        0.0352
     22 H          -2.3128   -2.6640   -0.0339 H       1  LIG1        0.0275
     23 H          -2.0591   -1.7665   -1.4969 H       1  LIG1        0.0275
     24 H          -1.1455   -0.6450    1.8208 H       1  LIG1        0.0239
     25 H          -2.7071   -1.3394    2.1847 H       1  LIG1        0.0239
     26 H          -2.5177    0.3962    2.1140 H       1  LIG1        0.0239
     27 H           6.1624    0.5953    0.6248 H       1  LIG1        0.2921
     28 H          -4.7996    1.3728   -0.8785 H       1  LIG1        0.0342
     29 H          -4.8993    1.3906    0.8455 H       1  LIG1        0.0342
     30 H          -2.6376    2.0534    1.0819 H       1  LIG1        0.0272
     31 H          -2.8594    2.7131   -0.4694 H       1  LIG1        0.0272
     32 H          -1.9315    0.7679   -1.5453 H       1  LIG1        0.0313
     33 H          -0.4734    0.8378    1.0299 H       1  LIG1        0.0310
     34 H          -0.2375   -1.7846    0.9244 H       1  LIG1        0.0271
     35 H           0.1001   -2.5245   -0.6317 H       1  LIG1        0.0271
     36 H          -0.4234    2.9305   -0.3275 H       1  LIG1        0.0271
     37 H           0.2539    2.0166   -1.6417 H       1  LIG1        0.0271
     38 H           1.4300    2.4489    1.0960 H       1  LIG1        0.0313
     39 H           2.1022    2.9316   -0.4575 H       1  LIG1        0.0313
     40 H           4.1221    1.8013    0.4587 H       1  LIG1        0.0657
     41 H           4.3448   -2.3291   -0.1844 H       1  LIG1        0.0654
     42 H           1.9778   -2.3770   -0.6265 H       1  LIG1        0.0622
@<TRIPOS>BOND
     1     1    12    1
     2     1    16    1
     3     2    12    1
     4     3    10    1
     5     3     2    1
     6     4     3    1
     7     5     7    2
     8     7     3    1
     9     8     9    1
    10     8     7    1
    11     9    10    1
    12    10    11    1
    13    11     1    1
    14    13    11    1
    15    13    14    1
    16    14    15    1
    17    15    16   ar
    18    15    17   ar
    19    16    20   ar
    20    17    18   ar
    21    18    19   ar
    22    18     6    1
    23    20    19   ar
    24     1    21    1
    25     2    22    1
    26     2    23    1
    27     4    24    1
    28     4    25    1
    29     4    26    1
    30     6    27    1
    31     8    28    1
    32     8    29    1
    33     9    30    1
    34     9    31    1
    35    10    32    1
    36    11    33    1
    37    12    34    1
    38    12    35    1
    39    13    36    1
    40    13    37    1
    41    14    38    1
    42    14    39    1
    43    17    40    1
    44    19    41    1
    45    20    42    1
