REMARK  6 active torsions:
REMARK  status: ('A' for Active; 'I' for Inactive)
REMARK    1  A    between atoms: C_1  and  O_24 
REMARK    2  A    between atoms: C_3  and  C_21 
REMARK    3  A    between atoms: C_6  and  C_14 
REMARK    4  A    between atoms: C_17  and  O_18 
REMARK    5  A    between atoms: C_21  and  O_22 
REMARK    6  A    between atoms: O_22  and  C_23 
ROOT
ATOM      1  C   LIG d   1      -3.968   0.572   0.280  0.00  0.00     0.067 A 
ATOM      2  C   LIG d   1      -3.572  -0.743   0.086  0.00  0.00    -0.040 A 
ATOM      3  C   LIG d   1      -2.228  -1.056   0.052  0.00  0.00     0.002 A 
ATOM      4  C   LIG d   1      -1.273  -0.059   0.213  0.00  0.00     0.085 A 
ATOM      5  O   LIG d   1       0.041  -0.408   0.172  0.00  0.00    -0.340 OA
ATOM      6  C   LIG d   1       0.965   0.475   0.808  0.00  0.00     0.074 C 
ATOM      7  C   LIG d   1       0.759   1.890   0.282  0.00  0.00    -0.017 C 
ATOM      8  C   LIG d   1       0.817   1.898  -1.262  0.00  0.00    -0.058 C 
ATOM      9  C   LIG d   1      -0.005   3.141  -1.664  0.00  0.00    -0.064 C 
ATOM     10  C   LIG d   1      -0.951   3.441  -0.488  0.00  0.00    -0.057 C 
ATOM     11  C   LIG d   1      -0.672   2.370   0.590  0.00  0.00    -0.020 C 
ATOM     12  C   LIG d   1      -1.665   1.252   0.408  0.00  0.00    -0.017 A 
ATOM     13  C   LIG d   1      -3.016   1.564   0.440  0.00  0.00    -0.042 A 
ATOM     14  H   LIG d   1      -4.280  -1.485  -0.033  0.00  0.00     0.088 H 
ATOM     15  H   LIG d   1       0.803   0.460   1.865  0.00  0.00     0.092 H 
ATOM     16  H   LIG d   1       1.513   2.500   0.735  0.00  0.00     0.045 H 
ATOM     17  H   LIG d   1       0.380   1.008  -1.663  0.00  0.00     0.033 H 
ATOM     18  H   LIG d   1       1.819   1.931  -1.635  0.00  0.00     0.033 H 
ATOM     19  H   LIG d   1      -0.570   2.939  -2.550  0.00  0.00     0.033 H 
ATOM     20  H   LIG d   1       0.632   3.975  -1.869  0.00  0.00     0.033 H 
ATOM     21  H   LIG d   1      -1.970   3.383  -0.810  0.00  0.00     0.034 H 
ATOM     22  H   LIG d   1      -0.787   4.426  -0.104  0.00  0.00     0.034 H 
ATOM     23  H   LIG d   1      -0.760   2.726   1.595  0.00  0.00     0.048 H 
ATOM     24  H   LIG d   1      -3.313   2.542   0.584  0.00  0.00     0.088 H 
ENDROOT
BRANCH   6  25
ATOM     25  C   LIG d   1       2.373   0.028   0.509  0.00  0.00    -0.028 A 
ATOM     26  C   LIG d   1       3.338   0.077   1.498  0.00  0.00    -0.072 A 
ATOM     27  C   LIG d   1       4.629  -0.332   1.227  0.00  0.00    -0.050 A 
ATOM     28  H   LIG d   1       3.093   0.420   2.440  0.00  0.00     0.084 H 
ATOM     29  C   LIG d   1       4.958  -0.792  -0.040  0.00  0.00     0.065 A 
ATOM     30  H   LIG d   1       5.348  -0.295   1.966  0.00  0.00     0.087 H 
ATOM     31  C   LIG d   1       3.988  -0.841  -1.031  0.00  0.00    -0.050 A 
ATOM     32  C   LIG d   1       2.697  -0.436  -0.753  0.00  0.00    -0.072 A 
ATOM     33  H   LIG d   1       4.231  -1.180  -1.975  0.00  0.00     0.087 H 
ATOM     34  H   LIG d   1       1.974  -0.480  -1.488  0.00  0.00     0.084 H 
BRANCH  29  35
ATOM     35  O   LIG d   1       6.227  -1.195  -0.309  0.00  0.00    -0.361 OA
ATOM     36  H   LIG d   1       6.881  -1.161   0.361  0.00  0.00     0.217 HD
ENDBRANCH  29  35
ENDBRANCH   6  25
BRANCH   3  37
ATOM     37  C   LIG d   1      -1.795  -2.484  -0.159  0.00  0.00     0.045 C 
ATOM     38  H   LIG d   1      -1.219  -2.810   0.682  0.00  0.00     0.081 H 
ATOM     39  H   LIG d   1      -1.200  -2.549  -1.046  0.00  0.00     0.081 H 
BRANCH  37  40
ATOM     40  O   LIG d   1      -2.949  -3.316  -0.297  0.00  0.00    -0.391 OA
BRANCH  40  41
ATOM     41  C   LIG d   1      -2.648  -4.698  -0.503  0.00  0.00     0.004 C 
ATOM     42  H   LIG d   1      -3.559  -5.251  -0.596  0.00  0.00     0.066 H 
ATOM     43  H   LIG d   1      -2.089  -5.069   0.330  0.00  0.00     0.066 H 
ATOM     44  H   LIG d   1      -2.071  -4.808  -1.397  0.00  0.00     0.066 H 
ENDBRANCH  40  41
ENDBRANCH  37  40
ENDBRANCH   3  37
BRANCH   1  45
ATOM     45  O   LIG d   1      -5.291   0.887   0.308  0.00  0.00    -0.361 OA
ATOM     46  H   LIG d   1      -5.935   0.215   0.200  0.00  0.00     0.217 HD
ENDBRANCH   1  45
TORSDOF 6
