@<TRIPOS>MOLECULE
JJ3
 46 49 0 0 0
SMALL
GASTEIGER

@<TRIPOS>ATOM
      1 C          -3.9680    0.5720    0.2800 C.ar    1  LIG1        0.1177
      2 C          -3.5720   -0.7430    0.0860 C.ar    1  LIG1       -0.0113
      3 C          -2.2280   -1.0560    0.0520 C.ar    1  LIG1        0.0234
      4 C          -1.2730   -0.0590    0.2130 C.ar    1  LIG1        0.1304
      5 O           0.0410   -0.4080    0.1720 O.3     1  LIG1       -0.4833
      6 C           0.9650    0.4750    0.8080 C.3     1  LIG1        0.1285
      7 C           0.7590    1.8900    0.2820 C.3     1  LIG1        0.0072
      8 C           0.8170    1.8980   -1.2620 C.3     1  LIG1       -0.0460
      9 C          -0.0050    3.1410   -1.6640 C.3     1  LIG1       -0.0521
     10 C          -0.9510    3.4410   -0.4880 C.3     1  LIG1       -0.0457
     11 C          -0.6720    2.3700    0.5900 C.3     1  LIG1       -0.0058
     12 C          -1.6650    1.2520    0.4080 C.ar    1  LIG1        0.0016
     13 C          -3.0160    1.5640    0.4400 C.ar    1  LIG1       -0.0132
     14 C           2.3730    0.0280    0.5090 C.ar    1  LIG1       -0.0069
     15 C           3.3380    0.0770    1.4980 C.ar    1  LIG1       -0.0516
     16 C           4.6290   -0.3320    1.2270 C.ar    1  LIG1       -0.0198
     17 C           4.9580   -0.7920   -0.0400 C.ar    1  LIG1        0.1169
     18 O           6.2270   -1.1950   -0.3090 O.3     1  LIG1       -0.5068
     19 C           3.9880   -0.8410   -1.0310 C.ar    1  LIG1       -0.0198
     20 C           2.6970   -0.4360   -0.7530 C.ar    1  LIG1       -0.0516
     21 C          -1.7950   -2.4840   -0.1590 C.3     1  LIG1        0.0759
     22 O          -2.9490   -3.3160   -0.2970 O.3     1  LIG1       -0.3783
     23 C          -2.6480   -4.6980   -0.5030 C.3     1  LIG1        0.0369
     24 O          -5.2910    0.8870    0.3080 O.3     1  LIG1       -0.5067
     25 H          -4.2796   -1.4848   -0.0325 H       1  LIG1        0.0659
     26 H           0.8028    0.4604    1.8655 H       1  LIG1        0.0787
     27 H           1.5127    2.4999    0.7346 H       1  LIG1        0.0346
     28 H           0.3797    1.0076   -1.6630 H       1  LIG1        0.0269
     29 H           1.8194    1.9308   -1.6348 H       1  LIG1        0.0269
     30 H          -0.5698    2.9394   -2.5501 H       1  LIG1        0.0266
     31 H           0.6324    3.9755   -1.8693 H       1  LIG1        0.0266
     32 H          -1.9697    3.3834   -0.8102 H       1  LIG1        0.0271
     33 H          -0.7871    4.4260   -0.1036 H       1  LIG1        0.0271
     34 H          -0.7600    2.7259    1.5952 H       1  LIG1        0.0354
     35 H          -3.3133    2.5417    0.5840 H       1  LIG1        0.0658
     36 H           3.0932    0.4197    2.4401 H       1  LIG1        0.0623
     37 H           5.3483   -0.2955    1.9662 H       1  LIG1        0.0654
     38 H           6.8812   -1.1615    0.3610 H       1  LIG1        0.2921
     39 H           4.2309   -1.1798   -1.9751 H       1  LIG1        0.0654
     40 H           1.9735   -0.4797   -1.4877 H       1  LIG1        0.0623
     41 H          -1.2187   -2.8099    0.6816 H       1  LIG1        0.0611
     42 H          -1.2001   -2.5491   -1.0460 H       1  LIG1        0.0611
     43 H          -3.5590   -5.2514   -0.5963 H       1  LIG1        0.0524
     44 H          -2.0889   -5.0693    0.3303 H       1  LIG1        0.0524
     45 H          -2.0708   -4.8079   -1.3972 H       1  LIG1        0.0524
     46 H          -5.9350    0.2151    0.1996 H       1  LIG1        0.2921
@<TRIPOS>BOND
     1     1     2   ar
     2     1    13   ar
     3     1    24    1
     4     2     3   ar
     5     3     4   ar
     6     3    21    1
     7     4     5    1
     8     4    12   ar
     9     5     6    1
    10     6     7    1
    11     6    14    1
    12     7     8    1
    13     7    11    1
    14     8     9    1
    15     9    10    1
    16    10    11    1
    17    11    12    1
    18    12    13   ar
    19    14    15   ar
    20    14    20   ar
    21    15    16   ar
    22    16    17   ar
    23    17    18    1
    24    17    19   ar
    25    19    20   ar
    26    21    22    1
    27    22    23    1
    28     2    25    1
    29     6    26    1
    30     7    27    1
    31     8    28    1
    32     8    29    1
    33     9    30    1
    34     9    31    1
    35    10    32    1
    36    10    33    1
    37    11    34    1
    38    13    35    1
    39    15    36    1
    40    16    37    1
    41    18    38    1
    42    19    39    1
    43    20    40    1
    44    21    41    1
    45    21    42    1
    46    23    43    1
    47    23    44    1
    48    23    45    1
    49    24    46    1
