REMARK  6 active torsions:
REMARK  status: ('A' for Active; 'I' for Inactive)
REMARK    1  A    between atoms: C_26  and  C_6 
REMARK    2  A    between atoms: C_7  and  C_11 
REMARK    3  A    between atoms: N_10  and  C_12 
REMARK    4  A    between atoms: C_12  and  C_20 
REMARK    5  A    between atoms: C_15  and  O_19 
REMARK    6  A    between atoms: C_17  and  O_18 
ROOT
ATOM      1  C   LIG d   1       1.518   3.261   0.792  0.00  0.00    -0.066 A 
ATOM      2  C   LIG d   1       0.198   3.575   1.088  0.00  0.00    -0.081 A 
ATOM      3  C   LIG d   1      -0.809   2.705   0.780  0.00  0.00    -0.069 A 
ATOM      4  C   LIG d   1      -0.511   1.489   0.161  0.00  0.00     0.022 A 
ATOM      5  C   LIG d   1       0.825   1.167  -0.141  0.00  0.00     0.078 A 
ATOM      6  C   LIG d   1       1.836   2.069   0.183  0.00  0.00     0.077 A 
ATOM      7  C   LIG d   1      -1.322   0.355  -0.297  0.00  0.00     0.073 A 
ATOM      8  N   LIG d   1      -0.505  -0.531  -0.813  0.00  0.00    -0.296 N 
ATOM      9  HN  LIG d   1      -0.789  -1.426  -1.213  1.00  0.00     0.187 HD
ATOM     10  N   LIG d   1       0.812  -0.069  -0.735  0.00  0.00    -0.286 N 
ATOM     11  H   LIG d   1       2.268   3.928   1.031  0.00  0.00     0.084 H 
ATOM     12  H   LIG d   1      -0.024   4.473   1.545  0.00  0.00     0.083 H 
ATOM     13  H   LIG d   1      -1.787   2.946   1.004  0.00  0.00     0.085 H 
ENDROOT
BRANCH  10  14
ATOM     14  C   LIG d   1       1.994  -0.791  -1.213  0.00  0.00     0.039 C 
ATOM     15  H   LIG d   1       2.869  -0.203  -1.031  0.00  0.00     0.074 H 
ATOM     16  H   LIG d   1       1.900  -0.974  -2.263  0.00  0.00     0.074 H 
BRANCH  14  17
ATOM     17  C   LIG d   1       2.110  -2.104  -0.482  0.00  0.00    -0.038 A 
ATOM     18  C   LIG d   1       1.420  -3.212  -0.937  0.00  0.00    -0.075 A 
ATOM     19  C   LIG d   1       1.531  -4.417  -0.269  0.00  0.00    -0.082 A 
ATOM     20  H   LIG d   1       0.822  -3.140  -1.775  0.00  0.00     0.084 H 
ATOM     21  C   LIG d   1       2.323  -4.512   0.860  0.00  0.00    -0.083 A 
ATOM     22  H   LIG d   1       1.022  -5.246  -0.613  0.00  0.00     0.083 H 
ATOM     23  C   LIG d   1       3.009  -3.402   1.318  0.00  0.00    -0.082 A 
ATOM     24  H   LIG d   1       2.402  -5.411   1.361  0.00  0.00     0.083 H 
ATOM     25  C   LIG d   1       2.902  -2.198   0.647  0.00  0.00    -0.075 A 
ATOM     26  H   LIG d   1       3.601  -3.472   2.161  0.00  0.00     0.083 H 
ATOM     27  H   LIG d   1       3.413  -1.369   0.989  0.00  0.00     0.084 H 
ENDBRANCH  14  17
ENDBRANCH  10  14
BRANCH   6  28
ATOM     28  C   LIG d   1       3.272   1.743  -0.139  0.00  0.00     0.419 C 
ATOM     29  F   LIG d   1       4.093   2.797   0.274  0.00  0.00    -0.166 F 
ATOM     30  F   LIG d   1       3.410   1.557  -1.519  0.00  0.00    -0.166 F 
ATOM     31  F   LIG d   1       3.645   0.571   0.529  0.00  0.00    -0.166 F 
ENDBRANCH   6  28
BRANCH   7  32
ATOM     32  C   LIG d   1      -2.795   0.233  -0.193  0.00  0.00     0.026 A 
ATOM     33  C   LIG d   1      -3.369  -0.955   0.273  0.00  0.00     0.081 A 
ATOM     34  C   LIG d   1      -4.746  -1.060   0.373  0.00  0.00    -0.018 A 
ATOM     35  C   LIG d   1      -5.552   0.005   0.001  0.00  0.00     0.068 A 
ATOM     36  H   LIG d   1      -5.173  -1.931   0.725  0.00  0.00     0.092 H 
ATOM     37  C   LIG d   1      -4.983   1.182  -0.467  0.00  0.00    -0.050 A 
ATOM     38  C   LIG d   1      -3.612   1.299  -0.564  0.00  0.00    -0.065 A 
ATOM     39  H   LIG d   1      -5.588   1.972  -0.743  0.00  0.00     0.087 H 
ATOM     40  H   LIG d   1      -3.192   2.175  -0.911  0.00  0.00     0.085 H 
BRANCH  33  41
ATOM     41  O   LIG d   1      -2.578  -2.000   0.630  0.00  0.00    -0.360 OA
ATOM     42  H   LIG d   1      -1.646  -1.927   0.562  0.00  0.00     0.217 HD
ENDBRANCH  33  41
BRANCH  35  43
ATOM     43  O   LIG d   1      -6.904  -0.103   0.095  0.00  0.00    -0.361 OA
ATOM     44  H   LIG d   1      -7.450   0.616  -0.156  0.00  0.00     0.217 HD
ENDBRANCH  35  43
ENDBRANCH   7  32
TORSDOF 6
