@<TRIPOS>MOLECULE
KN0
 43 46 0 0 0
SMALL
GASTEIGER

@<TRIPOS>ATOM
      1 C           1.5180    3.2610    0.7920 C.ar    1  LIG1       -0.0480
      2 C           0.1980    3.5750    1.0880 C.ar    1  LIG1       -0.0605
      3 C          -0.8090    2.7050    0.7800 C.ar    1  LIG1       -0.0504
      4 C          -0.5110    1.4890    0.1610 C.ar    1  LIG1        0.0283
      5 C           0.8250    1.1670   -0.1410 C.ar    1  LIG1        0.0815
      6 C           1.8360    2.0690    0.1830 C.ar    1  LIG1        0.0804
      7 C          -1.3220    0.3550   -0.2970 C.ar    1  LIG1        0.1039
      8 N          -0.5050   -0.5310   -0.8130 N.ar    1  LIG1       -0.1696
      9 N           0.8120   -0.0690   -0.7350 N.ar    1  LIG1       -0.2582
     10 C          -2.7950    0.2330   -0.1930 C.ar    1  LIG1        0.0443
     11 C           1.9940   -0.7910   -1.2130 C.3     1  LIG1        0.0672
     12 C          -3.6120    1.2990   -0.5640 C.ar    1  LIG1       -0.0455
     13 C          -4.9830    1.1820   -0.4670 C.ar    1  LIG1       -0.0193
     14 C          -5.5520    0.0050    0.0010 C.ar    1  LIG1        0.1204
     15 C          -4.7460   -1.0600    0.3730 C.ar    1  LIG1        0.0220
     16 C          -3.3690   -0.9550    0.2730 C.ar    1  LIG1        0.1295
     17 O          -2.5780   -2.0000    0.6300 O.3     1  LIG1       -0.5060
     18 O          -6.9040   -0.1030    0.0950 O.3     1  LIG1       -0.5066
     19 C           2.1100   -2.1040   -0.4820 C.ar    1  LIG1       -0.0261
     20 C           2.9020   -2.1980    0.6470 C.ar    1  LIG1       -0.0568
     21 C           3.0090   -3.4020    1.3180 C.ar    1  LIG1       -0.0614
     22 C           2.3230   -4.5120    0.8600 C.ar    1  LIG1       -0.0617
     23 C           1.5310   -4.4170   -0.2690 C.ar    1  LIG1       -0.0614
     24 C           1.4200   -3.2120   -0.9370 C.ar    1  LIG1       -0.0568
     25 C           3.2720    1.7430   -0.1390 C.3     1  LIG1        0.4194
     26 F           3.4100    1.5570   -1.5190 F       1  LIG1       -0.1658
     27 F           4.0930    2.7970    0.2740 F       1  LIG1       -0.1658
     28 F           3.6450    0.5710    0.5290 F       1  LIG1       -0.1658
     29 H           2.2679    3.9284    1.0312 H       1  LIG1        0.0624
     30 H          -0.0240    4.4734    1.5446 H       1  LIG1        0.0618
     31 H          -1.7872    2.9455    1.0041 H       1  LIG1        0.0625
     32 H           2.8691   -0.2028   -1.0309 H       1  LIG1        0.0559
     33 H           1.8997   -0.9743   -2.2630 H       1  LIG1        0.0559
     34 H          -3.1917    2.1753   -0.9111 H       1  LIG1        0.0626
     35 H          -5.5876    1.9715   -0.7430 H       1  LIG1        0.0654
     36 H          -5.1726   -1.9314    0.7246 H       1  LIG1        0.0691
     37 H          -1.6463   -1.9271    0.5617 H       1  LIG1        0.2922
     38 H          -7.4500    0.6159   -0.1560 H       1  LIG1        0.2921
     39 H           3.4134   -1.3694    0.9890 H       1  LIG1        0.0621
     40 H           3.6007   -3.4724    2.1606 H       1  LIG1        0.0618
     41 H           2.4023   -5.4108    1.3608 H       1  LIG1        0.0618
     42 H           1.0223   -5.2463   -0.6133 H       1  LIG1        0.0618
     43 H           0.8222   -3.1396   -1.7751 H       1  LIG1        0.0621
@<TRIPOS>BOND
     1     1     6   ar
     2     2     1   ar
     3     2     3   ar
     4     3     4   ar
     5     4     5   ar
     6     4     7   ar
     7     5     9   ar
     8     6     5   ar
     9     7    10    1
    10     7     8   ar
    11     9     8   ar
    12     9    11    1
    13    10    16   ar
    14    11    19    1
    15    12    10   ar
    16    12    13   ar
    17    13    14   ar
    18    14    18    1
    19    14    15   ar
    20    16    15   ar
    21    16    17    1
    22    19    24   ar
    23    19    20   ar
    24    20    21   ar
    25    21    22   ar
    26    23    22   ar
    27    24    23   ar
    28    25     6    1
    29    25    27    1
    30    26    25    1
    31    28    25    1
    32     1    29    1
    33     2    30    1
    34     3    31    1
    35    11    32    1
    36    11    33    1
    37    12    34    1
    38    13    35    1
    39    15    36    1
    40    17    37    1
    41    18    38    1
    42    20    39    1
    43    21    40    1
    44    22    41    1
    45    23    42    1
    46    24    43    1
