REMARK  6 active torsions:
REMARK  status: ('A' for Active; 'I' for Inactive)
REMARK    1  A    between atoms: C_2  and  C_3 
REMARK    2  A    between atoms: N_4  and  C_3 
REMARK    3  A    between atoms: C_8  and  C_9 
REMARK    4  A    between atoms: C_18  and  C_17 
REMARK    5  A    between atoms: O_22  and  C_21 
REMARK    6  A    between atoms: C_24  and  O_25 
ROOT
ATOM      1  N   LIG d   1       1.017   0.896   0.521  0.00  0.00    -0.287 N 
ATOM      2  N   LIG d   1      -0.356   1.153   0.591  0.00  0.00    -0.296 N 
ATOM      3  HN  LIG d   1      -0.771   2.042   0.870  1.00  0.00     0.187 HD
ATOM      4  C   LIG d   1       1.214  -0.396   0.105  0.00  0.00     0.078 A 
ATOM      5  C   LIG d   1       2.350  -1.166  -0.138  0.00  0.00     0.077 A 
ATOM      6  C   LIG d   1       2.217  -2.460  -0.555  0.00  0.00    -0.066 A 
ATOM      7  C   LIG d   1       0.960  -3.022  -0.742  0.00  0.00    -0.081 A 
ATOM      8  C   LIG d   1      -0.169  -2.290  -0.511  0.00  0.00    -0.069 A 
ATOM      9  C   LIG d   1      -0.059  -0.965  -0.083  0.00  0.00     0.022 A 
ATOM     10  C   LIG d   1      -1.031   0.084   0.246  0.00  0.00     0.073 A 
ATOM     11  H   LIG d   1       3.061  -3.027  -0.733  0.00  0.00     0.084 H 
ATOM     12  H   LIG d   1       0.879  -4.001  -1.058  0.00  0.00     0.083 H 
ATOM     13  H   LIG d   1      -1.099  -2.714  -0.652  0.00  0.00     0.085 H 
ENDROOT
BRANCH  10  14
ATOM     14  C   LIG d   1      -2.506  -0.042   0.193  0.00  0.00     0.026 A 
ATOM     15  C   LIG d   1      -3.273   0.954  -0.421  0.00  0.00     0.081 A 
ATOM     16  C   LIG d   1      -4.651   0.827  -0.472  0.00  0.00    -0.018 A 
ATOM     17  C   LIG d   1      -5.268  -0.279   0.094  0.00  0.00     0.068 A 
ATOM     18  H   LIG d   1      -5.219   1.556  -0.931  0.00  0.00     0.092 H 
ATOM     19  C   LIG d   1      -4.507  -1.265   0.709  0.00  0.00    -0.050 A 
ATOM     20  C   LIG d   1      -3.134  -1.150   0.759  0.00  0.00    -0.065 A 
ATOM     21  H   LIG d   1      -4.971  -2.086   1.129  0.00  0.00     0.087 H 
ATOM     22  H   LIG d   1      -2.571  -1.885   1.216  0.00  0.00     0.085 H 
BRANCH  15  23
ATOM     23  O   LIG d   1      -2.668   2.039  -0.969  0.00  0.00    -0.360 OA
ATOM     24  H   LIG d   1      -1.736   2.123  -0.933  0.00  0.00     0.217 HD
ENDBRANCH  15  23
BRANCH  17  25
ATOM     25  O   LIG d   1      -6.621  -0.398   0.047  0.00  0.00    -0.361 OA
ATOM     26  H   LIG d   1      -7.039  -1.145   0.429  0.00  0.00     0.217 HD
ENDBRANCH  17  25
ENDBRANCH  10  14
BRANCH   1  27
ATOM     27  C   LIG d   1       2.077   1.857   0.835  0.00  0.00     0.030 C 
ATOM     28  H   LIG d   1       1.770   2.471   1.656  0.00  0.00     0.073 H 
ATOM     29  H   LIG d   1       2.970   1.330   1.099  0.00  0.00     0.073 H 
BRANCH  27  30
ATOM     30  C   LIG d   1       2.342   2.724  -0.370  0.00  0.00    -0.093 C 
ATOM     31  C   LIG d   1       2.286   4.028  -0.262  0.00  0.00    -0.123 C 
ATOM     32  H   LIG d   1       2.467   4.622  -1.086  0.00  0.00     0.066 H 
ATOM     33  H   LIG d   1       2.061   4.461   0.647  0.00  0.00     0.066 H 
ATOM     34  H   LIG d   1       2.567   2.290  -1.279  0.00  0.00     0.078 H 
ENDBRANCH  27  30
ENDBRANCH   1  27
BRANCH   5  35
ATOM     35  C   LIG d   1       3.721  -0.573   0.060  0.00  0.00     0.419 C 
ATOM     36  F   LIG d   1       4.690  -1.488  -0.364  0.00  0.00    -0.166 F 
ATOM     37  F   LIG d   1       3.832   0.604  -0.688  0.00  0.00    -0.166 F 
ATOM     38  F   LIG d   1       3.913  -0.284   1.416  0.00  0.00    -0.166 F 
ENDBRANCH   5  35
TORSDOF 6
