@<TRIPOS>MOLECULE
KN1
 37 39 0 0 0
SMALL
GASTEIGER

@<TRIPOS>ATOM
      1 C           2.2860    4.0280   -0.2620 C.2     1  LIG1       -0.1009
      2 C           2.3420    2.7240   -0.3700 C.2     1  LIG1       -0.0700
      3 C           2.0770    1.8570    0.8350 C.3     1  LIG1        0.0601
      4 N           1.0170    0.8960    0.5210 N.ar    1  LIG1       -0.2588
      5 N          -0.3560    1.1530    0.5910 N.ar    1  LIG1       -0.1696
      6 C           1.2140   -0.3960    0.1050 C.ar    1  LIG1        0.0815
      7 C           2.3500   -1.1660   -0.1380 C.ar    1  LIG1        0.0804
      8 C           3.7210   -0.5730    0.0600 C.3     1  LIG1        0.4194
      9 F           3.8320    0.6040   -0.6880 F       1  LIG1       -0.1658
     10 F           3.9130   -0.2840    1.4160 F       1  LIG1       -0.1658
     11 F           4.6900   -1.4880   -0.3640 F       1  LIG1       -0.1658
     12 C           2.2170   -2.4600   -0.5550 C.ar    1  LIG1       -0.0480
     13 C           0.9600   -3.0220   -0.7420 C.ar    1  LIG1       -0.0605
     14 C          -0.1690   -2.2900   -0.5110 C.ar    1  LIG1       -0.0504
     15 C          -0.0590   -0.9650   -0.0830 C.ar    1  LIG1        0.0283
     16 C          -1.0310    0.0840    0.2460 C.ar    1  LIG1        0.1039
     17 C          -2.5060   -0.0420    0.1930 C.ar    1  LIG1        0.0443
     18 C          -3.1340   -1.1500    0.7590 C.ar    1  LIG1       -0.0455
     19 C          -4.5070   -1.2650    0.7090 C.ar    1  LIG1       -0.0193
     20 C          -5.2680   -0.2790    0.0940 C.ar    1  LIG1        0.1204
     21 O          -6.6210   -0.3980    0.0470 O.3     1  LIG1       -0.5066
     22 C          -4.6510    0.8270   -0.4720 C.ar    1  LIG1        0.0220
     23 C          -3.2730    0.9540   -0.4210 C.ar    1  LIG1        0.1295
     24 O          -2.6680    2.0390   -0.9690 O.3     1  LIG1       -0.5060
     25 H           2.4672    4.6223   -1.0860 H       1  LIG1        0.0532
     26 H           2.0607    4.4613    0.6471 H       1  LIG1        0.0532
     27 H           2.5673    2.2902   -1.2789 H       1  LIG1        0.0584
     28 H           1.7701    2.4711    1.6558 H       1  LIG1        0.0553
     29 H           2.9700    1.3298    1.0986 H       1  LIG1        0.0553
     30 H           3.0605   -3.0272   -0.7334 H       1  LIG1        0.0624
     31 H           0.8792   -4.0010   -1.0582 H       1  LIG1        0.0618
     32 H          -1.0994   -2.7137   -0.6520 H       1  LIG1        0.0625
     33 H          -2.5711   -1.8846    1.2157 H       1  LIG1        0.0626
     34 H          -4.9705   -2.0856    1.1295 H       1  LIG1        0.0654
     35 H          -7.0392   -1.1445    0.4289 H       1  LIG1        0.2921
     36 H          -5.2193    1.5557   -0.9314 H       1  LIG1        0.0691
     37 H          -1.7355    2.1232   -0.9335 H       1  LIG1        0.2922
@<TRIPOS>BOND
     1     2     3    1
     2     2     1    2
     3     4     3    1
     4     5     4   ar
     5     6     7   ar
     6     6     4   ar
     7     7     8    1
     8     8    11    1
     9     8     9    1
    10    10     8    1
    11    12     7   ar
    12    13    12   ar
    13    14    13   ar
    14    14    15   ar
    15    15    16   ar
    16    15     6   ar
    17    16     5   ar
    18    17    16    1
    19    17    23   ar
    20    18    17   ar
    21    19    18   ar
    22    19    20   ar
    23    20    22   ar
    24    21    20    1
    25    22    23   ar
    26    23    24    1
    27     1    25    1
    28     1    26    1
    29     2    27    1
    30     3    28    1
    31     3    29    1
    32    12    30    1
    33    13    31    1
    34    14    32    1
    35    18    33    1
    36    19    34    1
    37    21    35    1
    38    22    36    1
    39    24    37    1
