REMARK  4 active torsions:
REMARK  status: ('A' for Active; 'I' for Inactive)
REMARK    1  A    between atoms: O_1  and  C_2 
REMARK    2  A    between atoms: C_4  and  O_5 
REMARK    3  A    between atoms: C_8  and  C_9 
REMARK    4  A    between atoms: C_13  and  O_14 
ROOT
ATOM      1  C   LIG d   1      -0.052   0.730  -0.315  0.00  0.00     0.073 A 
ATOM      2  C   LIG d   1      -1.296  -0.011  -0.079  0.00  0.00     0.021 A 
ATOM      3  C   LIG d   1      -1.583  -1.331   0.276  0.00  0.00    -0.066 A 
ATOM      4  C   LIG d   1      -2.880  -1.729   0.424  0.00  0.00    -0.050 A 
ATOM      5  C   LIG d   1      -3.924  -0.827   0.224  0.00  0.00     0.068 A 
ATOM      6  C   LIG d   1      -3.663   0.483  -0.128  0.00  0.00    -0.023 A 
ATOM      7  C   LIG d   1      -2.345   0.905  -0.283  0.00  0.00     0.063 A 
ATOM      8  N   LIG d   1      -1.769   2.104  -0.616  0.00  0.00    -0.299 N 
ATOM      9  N   LIG d   1      -0.378   1.962  -0.620  0.00  0.00    -0.299 N 
ATOM     10  HN  LIG d   1       0.285   2.708  -0.830  1.00  0.00     0.187 HD
ATOM     11  H   LIG d   1      -0.816  -2.004   0.426  0.00  0.00     0.085 H 
ATOM     12  H   LIG d   1      -3.090  -2.705   0.686  0.00  0.00     0.087 H 
ATOM     13  H   LIG d   1      -4.441   1.145  -0.275  0.00  0.00     0.091 H 
ATOM     14  H   LIG d   1      -2.258   2.934  -0.820  0.00  0.00     0.187 HD
ENDROOT
BRANCH   1  15
ATOM     15  C   LIG d   1       1.323   0.186  -0.220  0.00  0.00     0.026 A 
ATOM     16  C   LIG d   1       2.310   0.891   0.478  0.00  0.00     0.081 A 
ATOM     17  C   LIG d   1       3.591   0.374   0.569  0.00  0.00    -0.018 A 
ATOM     18  C   LIG d   1       3.895  -0.837  -0.036  0.00  0.00     0.068 A 
ATOM     19  H   LIG d   1       4.320   0.889   1.087  0.00  0.00     0.092 H 
ATOM     20  C   LIG d   1       2.917  -1.535  -0.734  0.00  0.00    -0.050 A 
ATOM     21  C   LIG d   1       1.638  -1.028  -0.829  0.00  0.00    -0.065 A 
ATOM     22  H   LIG d   1       3.148  -2.435  -1.183  0.00  0.00     0.087 H 
ATOM     23  H   LIG d   1       0.914  -1.547  -1.351  0.00  0.00     0.085 H 
BRANCH  16  24
ATOM     24  O   LIG d   1       2.011   2.076   1.070  0.00  0.00    -0.360 OA
ATOM     25  H   LIG d   1       2.673   2.547   1.537  0.00  0.00     0.217 HD
ENDBRANCH  16  24
BRANCH  18  26
ATOM     26  O   LIG d   1       5.153  -1.343   0.054  0.00  0.00    -0.361 OA
ATOM     27  H   LIG d   1       5.814  -0.874   0.524  0.00  0.00     0.217 HD
ENDBRANCH  18  26
ENDBRANCH   1  15
BRANCH   5  28
ATOM     28  O   LIG d   1      -5.210  -1.240   0.375  0.00  0.00    -0.361 OA
ATOM     29  H   LIG d   1      -5.392  -2.128   0.614  0.00  0.00     0.217 HD
ENDBRANCH   5  28
TORSDOF 4
