@<TRIPOS>MOLECULE
KN2
 28 30 0 0 0
SMALL
GASTEIGER

@<TRIPOS>ATOM
      1 O           2.0110    2.0760    1.0700 O.3     1  LIG1       -0.5060
      2 C           2.3100    0.8910    0.4780 C.ar    1  LIG1        0.1295
      3 C           3.5910    0.3740    0.5690 C.ar    1  LIG1        0.0220
      4 C           3.8950   -0.8370   -0.0360 C.ar    1  LIG1        0.1204
      5 O           5.1530   -1.3430    0.0540 O.3     1  LIG1       -0.5066
      6 C           2.9170   -1.5350   -0.7340 C.ar    1  LIG1       -0.0193
      7 C           1.6380   -1.0280   -0.8290 C.ar    1  LIG1       -0.0455
      8 C           1.3230    0.1860   -0.2200 C.ar    1  LIG1        0.0443
      9 C          -0.0520    0.7300   -0.3150 C.ar    1  LIG1        0.1037
     10 C          -1.2960   -0.0110   -0.0790 C.ar    1  LIG1        0.0277
     11 C          -1.5830   -1.3310    0.2760 C.ar    1  LIG1       -0.0470
     12 C          -2.8800   -1.7290    0.4240 C.ar    1  LIG1       -0.0194
     13 C          -3.9240   -0.8270    0.2240 C.ar    1  LIG1        0.1189
     14 O          -5.2100   -1.2400    0.3750 O.3     1  LIG1       -0.5067
     15 C          -3.6630    0.4830   -0.1280 C.ar    1  LIG1        0.0052
     16 C          -2.3450    0.9050   -0.2830 C.ar    1  LIG1        0.0698
     17 N          -1.7690    2.1040   -0.6160 N.ar    1  LIG1       -0.2763
     18 N          -0.3780    1.9620   -0.6200 N.ar    1  LIG1       -0.1726
     19 H           2.6731    2.5467    1.5369 H       1  LIG1        0.2922
     20 H           4.3198    0.8894    1.0869 H       1  LIG1        0.0691
     21 H           5.8141   -0.8741    0.5242 H       1  LIG1        0.2921
     22 H           3.1484   -2.4352   -1.1825 H       1  LIG1        0.0654
     23 H           0.9144   -1.5470   -1.3506 H       1  LIG1        0.0626
     24 H          -0.8155   -2.0043    0.4262 H       1  LIG1        0.0626
     25 H          -3.0895   -2.7050    0.6859 H       1  LIG1        0.0654
     26 H          -5.3920   -2.1276    0.6137 H       1  LIG1        0.2921
     27 H          -4.4405    1.1454   -0.2753 H       1  LIG1        0.0675
     28 H          -2.2577    2.9339   -0.8201 H       1  LIG1        0.1889
@<TRIPOS>BOND
     1     1     2    1
     2     2     3   ar
     3     2     8   ar
     4     3     4   ar
     5     4     5    1
     6     4     6   ar
     7     6     7   ar
     8     7     8   ar
     9     8     9    1
    10     9    18   ar
    11     9    10   ar
    12    10    11   ar
    13    10    16   ar
    14    11    12   ar
    15    12    13   ar
    16    13    15   ar
    17    13    14    1
    18    15    16   ar
    19    16    17   ar
    20    17    18   ar
    21     1    19    1
    22     3    20    1
    23     5    21    1
    24     6    22    1
    25     7    23    1
    26    11    24    1
    27    12    25    1
    28    14    26    1
    29    15    27    1
    30    17    28    1
