@<TRIPOS>MOLECULE
KN3
 43 45 0 0 0
SMALL
GASTEIGER

@<TRIPOS>ATOM
      1 C          -1.7420    3.0340    0.5890 C.ar    1  LIG1       -0.0480
      2 C          -0.4320    3.4460    0.7940 C.ar    1  LIG1       -0.0605
      3 C           0.6100    2.5970    0.5530 C.ar    1  LIG1       -0.0504
      4 C           0.3540    1.3020    0.0960 C.ar    1  LIG1        0.0283
      5 C          -0.9730    0.8850   -0.1110 C.ar    1  LIG1        0.0815
      6 C          -2.0170    1.7700    0.1480 C.ar    1  LIG1        0.0804
      7 C           1.2040    0.1590   -0.2550 C.ar    1  LIG1        0.1039
      8 N           0.4160   -0.8200   -0.6290 N.ar    1  LIG1       -0.1696
      9 N          -0.9190   -0.4120   -0.5540 N.ar    1  LIG1       -0.2588
     10 C           2.6840    0.1190   -0.1980 C.ar    1  LIG1        0.0443
     11 C          -2.0790   -1.2410   -0.8940 C.3     1  LIG1        0.0606
     12 C          -2.4220   -2.1290    0.2740 C.2     1  LIG1       -0.0642
     13 C          -2.3710   -3.4310    0.1440 C.2     1  LIG1       -0.0779
     14 C          -2.8850   -4.3200    1.2470 C.3     1  LIG1       -0.0440
     15 C          -1.7990   -4.0410   -1.1100 C.3     1  LIG1       -0.0440
     16 C           3.4340    1.1460   -0.7680 C.ar    1  LIG1       -0.0455
     17 C           4.8120    1.1060   -0.7140 C.ar    1  LIG1       -0.0193
     18 C           5.4550    0.0440   -0.0920 C.ar    1  LIG1        0.1204
     19 C           4.7160   -0.9830    0.4780 C.ar    1  LIG1        0.0220
     20 C           3.3340   -0.9480    0.4340 C.ar    1  LIG1        0.1295
     21 O           2.6090   -1.9520    0.9910 O.3     1  LIG1       -0.5060
     22 O           6.8130    0.0100   -0.0410 O.3     1  LIG1       -0.5066
     23 C          -3.4450    1.3400   -0.0680 C.3     1  LIG1        0.4194
     24 F          -3.6520    1.0770   -1.4270 F       1  LIG1       -0.1658
     25 F          -3.7000    0.1820    0.6740 F       1  LIG1       -0.1658
     26 F          -4.3070    2.3600    0.3460 F       1  LIG1       -0.1658
     27 H          -2.5173    3.6901    0.7718 H       1  LIG1        0.0624
     28 H          -0.2441    4.4029    1.1317 H       1  LIG1        0.0618
     29 H           1.5811    2.9103    0.7076 H       1  LIG1        0.0625
     30 H          -1.8477   -1.8458   -1.7459 H       1  LIG1        0.0553
     31 H          -2.9137   -0.6107   -1.1198 H       1  LIG1        0.0553
     32 H          -2.6972   -1.7110    1.1766 H       1  LIG1        0.0590
     33 H          -3.2502   -3.7158    2.0511 H       1  LIG1        0.0274
     34 H          -2.0912   -4.9437    1.6015 H       1  LIG1        0.0274
     35 H          -3.6786   -4.9316    0.8715 H       1  LIG1        0.0274
     36 H          -1.4873   -3.2629   -1.7750 H       1  LIG1        0.0274
     37 H          -2.5456   -4.6405   -1.5876 H       1  LIG1        0.0274
     38 H          -0.9581   -4.6526   -0.8576 H       1  LIG1        0.0274
     39 H           2.9585    1.9366   -1.2306 H       1  LIG1        0.0626
     40 H           5.3661    1.8670   -1.1368 H       1  LIG1        0.0654
     41 H           5.1977   -1.7731    0.9349 H       1  LIG1        0.0691
     42 H           3.0447   -2.6657    1.4138 H       1  LIG1        0.2922
     43 H           7.3137    0.7025   -0.4253 H       1  LIG1        0.2921
@<TRIPOS>BOND
     1     2     1   ar
     2     3     2   ar
     3     4     3   ar
     4     4     5   ar
     5     5     6   ar
     6     6     1   ar
     7     6    23    1
     8     7     4   ar
     9     8     7   ar
    10     8     9   ar
    11     9     5   ar
    12     9    11    1
    13    10     7    1
    14    12    11    1
    15    12    13    2
    16    13    15    1
    17    14    13    1
    18    16    10   ar
    19    17    16   ar
    20    18    17   ar
    21    18    19   ar
    22    19    20   ar
    23    20    10   ar
    24    20    21    1
    25    22    18    1
    26    23    26    1
    27    23    24    1
    28    25    23    1
    29     1    27    1
    30     2    28    1
    31     3    29    1
    32    11    30    1
    33    11    31    1
    34    12    32    1
    35    14    33    1
    36    14    34    1
    37    14    35    1
    38    15    36    1
    39    15    37    1
    40    15    38    1
    41    16    39    1
    42    17    40    1
    43    19    41    1
    44    21    42    1
    45    22    43    1
