REMARK  8 active torsions:
REMARK  status: ('A' for Active; 'I' for Inactive)
REMARK    1  A    between atoms: C_6  and  C_24 
REMARK    2  A    between atoms: C_11  and  C_7 
REMARK    3  A    between atoms: N_10  and  C_12 
REMARK    4  A    between atoms: C_13  and  C_12 
REMARK    5  A    between atoms: C_14  and  C_16 
REMARK    6  A    between atoms: C_15  and  C_14 
REMARK    7  A    between atoms: O_23  and  C_19 
REMARK    8  A    between atoms: C_21  and  O_22 
ROOT
ATOM      1  C   LIG d   1      -1.742   3.034   0.589  0.00  0.00    -0.066 A 
ATOM      2  C   LIG d   1      -0.432   3.446   0.794  0.00  0.00    -0.081 A 
ATOM      3  C   LIG d   1       0.610   2.597   0.553  0.00  0.00    -0.069 A 
ATOM      4  C   LIG d   1       0.354   1.302   0.096  0.00  0.00     0.022 A 
ATOM      5  C   LIG d   1      -0.973   0.885  -0.111  0.00  0.00     0.078 A 
ATOM      6  C   LIG d   1      -2.017   1.770   0.148  0.00  0.00     0.077 A 
ATOM      7  C   LIG d   1       1.204   0.159  -0.255  0.00  0.00     0.073 A 
ATOM      8  N   LIG d   1       0.416  -0.820  -0.629  0.00  0.00    -0.296 N 
ATOM      9  HN  LIG d   1       0.730  -1.742  -0.930  1.00  0.00     0.187 HD
ATOM     10  N   LIG d   1      -0.919  -0.412  -0.554  0.00  0.00    -0.287 N 
ATOM     11  H   LIG d   1      -2.517   3.690   0.772  0.00  0.00     0.084 H 
ATOM     12  H   LIG d   1      -0.244   4.403   1.132  0.00  0.00     0.083 H 
ATOM     13  H   LIG d   1       1.581   2.910   0.708  0.00  0.00     0.085 H 
ENDROOT
BRANCH  10  14
ATOM     14  C   LIG d   1      -2.079  -1.241  -0.894  0.00  0.00     0.031 C 
ATOM     15  H   LIG d   1      -1.848  -1.846  -1.746  0.00  0.00     0.073 H 
ATOM     16  H   LIG d   1      -2.914  -0.611  -1.120  0.00  0.00     0.073 H 
BRANCH  14  17
ATOM     17  C   LIG d   1      -2.422  -2.129   0.274  0.00  0.00    -0.083 C 
ATOM     18  C   LIG d   1      -2.371  -3.431   0.144  0.00  0.00    -0.090 C 
ATOM     19  H   LIG d   1      -2.697  -1.711   1.177  0.00  0.00     0.079 H 
BRANCH  18  20
ATOM     20  C   LIG d   1      -1.799  -4.041  -1.110  0.00  0.00    -0.055 C 
ATOM     21  H   LIG d   1      -1.487  -3.263  -1.775  0.00  0.00     0.033 H 
ATOM     22  H   LIG d   1      -2.546  -4.641  -1.588  0.00  0.00     0.033 H 
ATOM     23  H   LIG d   1      -0.958  -4.653  -0.858  0.00  0.00     0.033 H 
ENDBRANCH  18  20
BRANCH  18  24
ATOM     24  C   LIG d   1      -2.885  -4.320   1.247  0.00  0.00    -0.055 C 
ATOM     25  H   LIG d   1      -3.250  -3.716   2.051  0.00  0.00     0.033 H 
ATOM     26  H   LIG d   1      -2.091  -4.944   1.601  0.00  0.00     0.033 H 
ATOM     27  H   LIG d   1      -3.679  -4.932   0.872  0.00  0.00     0.033 H 
ENDBRANCH  18  24
ENDBRANCH  14  17
ENDBRANCH  10  14
BRANCH   7  28
ATOM     28  C   LIG d   1       2.684   0.119  -0.198  0.00  0.00     0.026 A 
ATOM     29  C   LIG d   1       3.434   1.146  -0.768  0.00  0.00    -0.065 A 
ATOM     30  C   LIG d   1       4.812   1.106  -0.714  0.00  0.00    -0.050 A 
ATOM     31  H   LIG d   1       2.958   1.937  -1.231  0.00  0.00     0.085 H 
ATOM     32  C   LIG d   1       5.455   0.044  -0.092  0.00  0.00     0.068 A 
ATOM     33  H   LIG d   1       5.366   1.867  -1.137  0.00  0.00     0.087 H 
ATOM     34  C   LIG d   1       4.716  -0.983   0.478  0.00  0.00    -0.018 A 
ATOM     35  C   LIG d   1       3.334  -0.948   0.434  0.00  0.00     0.081 A 
ATOM     36  H   LIG d   1       5.198  -1.773   0.935  0.00  0.00     0.092 H 
BRANCH  32  37
ATOM     37  O   LIG d   1       6.813   0.010  -0.041  0.00  0.00    -0.361 OA
ATOM     38  H   LIG d   1       7.314   0.703  -0.425  0.00  0.00     0.217 HD
ENDBRANCH  32  37
BRANCH  35  39
ATOM     39  O   LIG d   1       2.609  -1.952   0.991  0.00  0.00    -0.360 OA
ATOM     40  H   LIG d   1       3.045  -2.666   1.414  0.00  0.00     0.217 HD
ENDBRANCH  35  39
ENDBRANCH   7  28
BRANCH   6  41
ATOM     41  C   LIG d   1      -3.445   1.340  -0.068  0.00  0.00     0.419 C 
ATOM     42  F   LIG d   1      -4.307   2.360   0.346  0.00  0.00    -0.166 F 
ATOM     43  F   LIG d   1      -3.652   1.077  -1.427  0.00  0.00    -0.166 F 
ATOM     44  F   LIG d   1      -3.700   0.182   0.674  0.00  0.00    -0.166 F 
ENDBRANCH   6  41
TORSDOF 8
