REMARK  10 active torsions:
REMARK  status: ('A' for Active; 'I' for Inactive)
REMARK    1  A    between atoms: C_1  and  C_14 
REMARK    2  A    between atoms: C_11  and  S_25 
REMARK    3  A    between atoms: C_12  and  O_26 
REMARK    4  A    between atoms: C_13  and  O_16 
REMARK    5  A    between atoms: O_16  and  C_17 
REMARK    6  A    between atoms: C_23  and  O_24 
REMARK    7  A    between atoms: S_25  and  C_27 
REMARK    8  A    between atoms: O_26  and  C_30 
REMARK    9  A    between atoms: C_30  and  C_31 
REMARK   10  A    between atoms: C_31  and  N_32 
ROOT
ATOM      1  O   LIG d   1       1.206  -1.427  -1.556  0.00  0.00    -0.309 OA
ENDROOT
BRANCH   1   2
ATOM      2  C   LIG d   1       1.370  -2.198  -0.452  0.00  0.00     0.098 A 
ATOM      3  C   LIG d   1       2.249  -1.810   0.550  0.00  0.00     0.009 A 
ATOM      4  C   LIG d   1       2.418  -2.601   1.697  0.00  0.00    -0.069 A 
ATOM      5  C   LIG d   1       1.732  -3.763   1.849  0.00  0.00    -0.071 A 
ATOM      6  H   LIG d   1       3.072  -2.296   2.434  0.00  0.00     0.085 H 
ATOM      7  C   LIG d   1       0.836  -4.191   0.851  0.00  0.00    -0.021 A 
ATOM      8  H   LIG d   1       1.868  -4.334   2.698  0.00  0.00     0.084 H 
ATOM      9  C   LIG d   1       0.118  -5.390   0.991  0.00  0.00    -0.040 A 
ATOM     10  C   LIG d   1       0.654  -3.404  -0.313  0.00  0.00     0.009 A 
ATOM     11  C   LIG d   1      -0.751  -5.781  -0.002  0.00  0.00     0.066 A 
ATOM     12  H   LIG d   1       0.241  -5.974   1.833  0.00  0.00     0.089 H 
ATOM     13  C   LIG d   1      -0.924  -4.998  -1.148  0.00  0.00    -0.050 A 
ATOM     14  C   LIG d   1      -0.240  -3.833  -1.308  0.00  0.00    -0.067 A 
ATOM     15  H   LIG d   1      -1.579  -5.308  -1.882  0.00  0.00     0.087 H 
ATOM     16  H   LIG d   1      -0.378  -3.265  -2.159  0.00  0.00     0.085 H 
BRANCH   3  17
ATOM     17  C   LIG d   1       3.011  -0.546   0.410  0.00  0.00    -0.023 A 
ATOM     18  C   LIG d   1       3.021   0.384   1.449  0.00  0.00    -0.071 A 
ATOM     19  C   LIG d   1       3.733   1.559   1.314  0.00  0.00    -0.061 A 
ATOM     20  H   LIG d   1       2.497   0.194   2.317  0.00  0.00     0.084 H 
ATOM     21  C   LIG d   1       4.435   1.815   0.150  0.00  0.00     0.058 A 
ATOM     22  H   LIG d   1       3.741   2.248   2.083  0.00  0.00     0.085 H 
ATOM     23  C   LIG d   1       4.424   0.898  -0.886  0.00  0.00    -0.061 A 
ATOM     24  C   LIG d   1       3.721  -0.282  -0.760  0.00  0.00    -0.071 A 
ATOM     25  H   LIG d   1       4.943   1.097  -1.755  0.00  0.00     0.085 H 
ATOM     26  H   LIG d   1       3.721  -0.968  -1.531  0.00  0.00     0.084 H 
BRANCH  21  27
ATOM     27  S   LIG d   1       5.341   3.317  -0.016  0.00  0.00     0.171 S 
ATOM     28  O   LIG d   1       4.648   4.200   0.855  0.00  0.00    -0.223 OA
ATOM     29  O   LIG d   1       5.370   3.513  -1.423  0.00  0.00    -0.223 OA
BRANCH  27  30
ATOM     30  C   LIG d   1       6.979   2.886   0.633  0.00  0.00     0.020 C 
ATOM     31  H   LIG d   1       6.918   2.747   1.692  0.00  0.00     0.049 H 
ATOM     32  H   LIG d   1       7.668   3.676   0.416  0.00  0.00     0.049 H 
ATOM     33  H   LIG d   1       7.318   1.981   0.173  0.00  0.00     0.049 H 
ENDBRANCH  27  30
ENDBRANCH  21  27
ENDBRANCH   3  17
BRANCH  11  34
ATOM     34  O   LIG d   1      -1.447  -6.940   0.131  0.00  0.00    -0.361 OA
ATOM     35  H   LIG d   1      -1.335  -7.468   0.897  0.00  0.00     0.217 HD
ENDBRANCH  11  34
ENDBRANCH   1   2
BRANCH   1  36
ATOM     36  C   LIG d   1       0.193  -0.562  -1.284  0.00  0.00     0.076 A 
ATOM     37  C   LIG d   1      -0.206   0.361  -2.240  0.00  0.00    -0.048 A 
ATOM     38  C   LIG d   1      -1.235   1.240  -1.963  0.00  0.00    -0.048 A 
ATOM     39  H   LIG d   1       0.266   0.391  -3.157  0.00  0.00     0.087 H 
ATOM     40  C   LIG d   1      -1.870   1.198  -0.731  0.00  0.00     0.069 A 
ATOM     41  H   LIG d   1      -1.531   1.928  -2.673  0.00  0.00     0.087 H 
ATOM     42  C   LIG d   1      -1.472   0.275   0.224  0.00  0.00    -0.048 A 
ATOM     43  C   LIG d   1      -0.446  -0.607  -0.054  0.00  0.00    -0.048 A 
ATOM     44  H   LIG d   1      -1.942   0.247   1.142  0.00  0.00     0.087 H 
ATOM     45  H   LIG d   1      -0.155  -1.300   0.654  0.00  0.00     0.087 H 
BRANCH  40  46
ATOM     46  O   LIG d   1      -2.884   2.063  -0.459  0.00  0.00    -0.349 OA
BRANCH  46  47
ATOM     47  C   LIG d   1      -3.326   1.777   0.869  0.00  0.00     0.049 C 
ATOM     48  H   LIG d   1      -2.515   1.917   1.553  0.00  0.00     0.077 H 
ATOM     49  H   LIG d   1      -3.666   0.764   0.921  0.00  0.00     0.077 H 
BRANCH  47  50
ATOM     50  C   LIG d   1      -4.473   2.720   1.239  0.00  0.00     0.103 C 
ATOM     51  H   LIG d   1      -4.145   3.734   1.146  0.00  0.00     0.079 H 
ATOM     52  H   LIG d   1      -4.776   2.534   2.248  0.00  0.00     0.079 H 
BRANCH  50  53
ATOM     53  N   LIG d   1      -5.609   2.488   0.337  0.00  0.00    -0.069 N 
ATOM     54  C   LIG d   1      -6.697   3.356   0.798  0.00  0.00     0.084 C 
ATOM     55  C   LIG d   1      -7.925   3.165  -0.094  0.00  0.00    -0.042 C 
ATOM     56  H   LIG d   1      -6.380   4.377   0.753  0.00  0.00     0.076 H 
ATOM     57  H   LIG d   1      -6.949   3.101   1.806  0.00  0.00     0.076 H 
ATOM     58  C   LIG d   1      -8.396   1.710   0.003  0.00  0.00    -0.062 C 
ATOM     59  H   LIG d   1      -7.670   3.392  -1.108  0.00  0.00     0.035 H 
ATOM     60  H   LIG d   1      -8.709   3.819   0.228  0.00  0.00     0.035 H 
ATOM     61  C   LIG d   1      -7.229   0.785  -0.359  0.00  0.00    -0.042 C 
ATOM     62  H   LIG d   1      -9.206   1.549  -0.677  0.00  0.00     0.033 H 
ATOM     63  H   LIG d   1      -8.728   1.502   0.999  0.00  0.00     0.033 H 
ATOM     64  C   LIG d   1      -6.038   1.101   0.547  0.00  0.00     0.084 C 
ATOM     65  H   LIG d   1      -7.524  -0.234  -0.220  0.00  0.00     0.035 H 
ATOM     66  H   LIG d   1      -6.953   0.937  -1.382  0.00  0.00     0.035 H 
ATOM     67  H   LIG d   1      -6.324   0.969   1.569  0.00  0.00     0.076 H 
ATOM     68  H   LIG d   1      -5.229   0.441   0.311  0.00  0.00     0.076 H 
ATOM     69  H   LIG d   1      -5.371   2.666  -0.639  0.00  0.00     0.280 HD
ENDBRANCH  50  53
ENDBRANCH  47  50
ENDBRANCH  46  47
ENDBRANCH  40  46
ENDBRANCH   1  36
TORSDOF 10
