@<TRIPOS>MOLECULE
L4G
 69 73 0 0 0
SMALL
GASTEIGER

@<TRIPOS>ATOM
      1 C           3.0110   -0.5460    0.4100 C.ar    1  LIG1       -0.0142
      2 C           2.4180   -2.6010    1.6970 C.ar    1  LIG1       -0.0499
      3 C           0.8360   -4.1910    0.8510 C.ar    1  LIG1       -0.0109
      4 C          -0.2400   -3.8330   -1.3080 C.ar    1  LIG1       -0.0470
      5 C           3.0210    0.3840    1.4490 C.ar    1  LIG1       -0.0521
      6 C           0.1180   -5.3900    0.9910 C.ar    1  LIG1       -0.0124
      7 C          -0.2060    0.3610   -2.2400 C.ar    1  LIG1       -0.0159
      8 C           3.7330    1.5590    1.3140 C.ar    1  LIG1       -0.0363
      9 C          -1.2350    1.2400   -1.9630 C.ar    1  LIG1       -0.0165
     10 C          -1.4720    0.2750    0.2240 C.ar    1  LIG1       -0.0165
     11 C           4.4350    1.8150    0.1500 C.ar    1  LIG1        0.0879
     12 C          -1.8700    1.1980   -0.7310 C.ar    1  LIG1        0.1210
     13 C           1.3700   -2.1980   -0.4520 C.ar    1  LIG1        0.1438
     14 C           2.2490   -1.8100    0.5500 C.ar    1  LIG1        0.0250
     15 C           0.6540   -3.4040   -0.3130 C.ar    1  LIG1        0.0252
     16 O           1.2060   -1.4270   -1.5560 O.3     1  LIG1       -0.4548
     17 C           0.1930   -0.5620   -1.2840 C.ar    1  LIG1        0.1287
     18 C           3.7210   -0.2820   -0.7600 C.ar    1  LIG1       -0.0521
     19 C           1.7320   -3.7630    1.8490 C.ar    1  LIG1       -0.0531
     20 C          -0.9240   -4.9980   -1.1480 C.ar    1  LIG1       -0.0195
     21 C          -0.4460   -0.6070   -0.0540 C.ar    1  LIG1       -0.0159
     22 C           4.4240    0.8980   -0.8860 C.ar    1  LIG1       -0.0363
     23 C          -0.7510   -5.7810   -0.0020 C.ar    1  LIG1        0.1175
     24 O          -1.4470   -6.9400    0.1310 O.3     1  LIG1       -0.5067
     25 S           5.3410    3.3170   -0.0160 S.O2    1  LIG1       -0.0059
     26 O          -2.8840    2.0630   -0.4590 O.3     1  LIG1       -0.4867
     27 C           6.9790    2.8860    0.6330 C.3     1  LIG1        0.0596
     28 O           4.6480    4.2000    0.8550 O.2     1  LIG1       -0.1696
     29 O           5.3700    3.5130   -1.4230 O.2     1  LIG1       -0.1696
     30 C          -3.3260    1.7770    0.8690 C.3     1  LIG1        0.1291
     31 C          -4.4730    2.7200    1.2390 C.3     1  LIG1        0.0031
     32 N          -5.6090    2.4880    0.3370 N.4     1  LIG1        0.2376
     33 C          -6.6970    3.3560    0.7980 C.3     1  LIG1       -0.0318
     34 C          -6.0380    1.1010    0.5470 C.3     1  LIG1       -0.0318
     35 C          -7.9250    3.1650   -0.0940 C.3     1  LIG1       -0.0123
     36 C          -7.2290    0.7850   -0.3590 C.3     1  LIG1       -0.0123
     37 C          -8.3960    1.7100    0.0030 C.3     1  LIG1       -0.0434
     38 H           3.0721   -2.2955    2.4345 H       1  LIG1        0.0625
     39 H          -0.3777   -3.2654   -2.1588 H       1  LIG1        0.0626
     40 H           2.4969    0.1942    2.3175 H       1  LIG1        0.0624
     41 H           0.2413   -5.9739    1.8329 H       1  LIG1        0.0660
     42 H           0.2657    0.3908   -3.1574 H       1  LIG1        0.0655
     43 H           3.7415    2.2475    2.0827 H       1  LIG1        0.0637
     44 H          -1.5312    1.9279   -2.6730 H       1  LIG1        0.0655
     45 H          -1.9422    0.2470    1.1422 H       1  LIG1        0.0655
     46 H           3.7207   -0.9683   -1.5307 H       1  LIG1        0.0624
     47 H           1.8678   -4.3337    2.6981 H       1  LIG1        0.0624
     48 H          -1.5795   -5.3083   -1.8822 H       1  LIG1        0.0654
     49 H          -0.1549   -1.2995    0.6536 H       1  LIG1        0.0655
     50 H           4.9432    1.0974   -1.7553 H       1  LIG1        0.0637
     51 H          -1.3351   -7.4685    0.8966 H       1  LIG1        0.2921
     52 H           6.9176    2.7466    1.6921 H       1  LIG1        0.0468
     53 H           7.6676    3.6759    0.4165 H       1  LIG1        0.0468
     54 H           7.3181    1.9813    0.1732 H       1  LIG1        0.0468
     55 H          -2.5149    1.9166    1.5527 H       1  LIG1        0.0751
     56 H          -3.6662    0.7639    0.9213 H       1  LIG1        0.0751
     57 H          -4.1450    3.7342    1.1457 H       1  LIG1        0.0848
     58 H          -4.7757    2.5341    2.2483 H       1  LIG1        0.0848
     59 H          -5.3712    2.6661   -0.6388 H       1  LIG1        0.2034
     60 H          -6.3804    4.3771    0.7528 H       1  LIG1        0.0814
     61 H          -6.9494    3.1013    1.8061 H       1  LIG1        0.0814
     62 H          -6.3243    0.9685    1.5694 H       1  LIG1        0.0814
     63 H          -5.2294    0.4412    0.3110 H       1  LIG1        0.0814
     64 H          -7.6697    3.3918   -1.1080 H       1  LIG1        0.0317
     65 H          -8.7085    3.8190    0.2276 H       1  LIG1        0.0317
     66 H          -7.5237   -0.2342   -0.2204 H       1  LIG1        0.0317
     67 H          -6.9534    0.9369   -1.3817 H       1  LIG1        0.0317
     68 H          -9.2063    1.5487   -0.6769 H       1  LIG1        0.0269
     69 H          -8.7278    1.5021    0.9988 H       1  LIG1        0.0269
@<TRIPOS>BOND
     1     1     5   ar
     2     1    14    1
     3     1    18   ar
     4     2    14   ar
     5     2    19   ar
     6     3     6   ar
     7     3    15   ar
     8     3    19   ar
     9     4    15   ar
    10     4    20   ar
    11     5     8   ar
    12     6    23   ar
    13     7     9   ar
    14     7    17   ar
    15     8    11   ar
    16     9    12   ar
    17    10    12   ar
    18    10    21   ar
    19    11    22   ar
    20    11    25    1
    21    12    26    1
    22    13    14   ar
    23    13    15   ar
    24    13    16    1
    25    16    17    1
    26    17    21   ar
    27    18    22   ar
    28    20    23   ar
    29    23    24    1
    30    25    27    1
    31    25    28    2
    32    25    29    2
    33    26    30    1
    34    30    31    1
    35    31    32    1
    36    32    33    1
    37    32    34    1
    38    33    35    1
    39    34    36    1
    40    35    37    1
    41    36    37    1
    42     2    38    1
    43     4    39    1
    44     5    40    1
    45     6    41    1
    46     7    42    1
    47     8    43    1
    48     9    44    1
    49    10    45    1
    50    18    46    1
    51    19    47    1
    52    20    48    1
    53    21    49    1
    54    22    50    1
    55    24    51    1
    56    27    52    1
    57    27    53    1
    58    27    54    1
    59    30    55    1
    60    30    56    1
    61    31    57    1
    62    31    58    1
    63    32    59    1
    64    33    60    1
    65    33    61    1
    66    34    62    1
    67    34    63    1
    68    35    64    1
    69    35    65    1
    70    36    66    1
    71    36    67    1
    72    37    68    1
    73    37    69    1
