@<TRIPOS>MOLECULE
LLB
 65 69 0 0 0
SMALL
GASTEIGER

@<TRIPOS>ATOM
      1 C          -3.1110   -2.0090    0.3740 C.ar    1  LIG1        0.0008
      2 C          -2.5250   -3.0940    1.0560 C.ar    1  LIG1       -0.0494
      3 C          -2.8550   -4.3840    0.7250 C.ar    1  LIG1       -0.0195
      4 C           8.8580   -2.2260    0.8410 C.3     1  LIG1       -0.0621
      5 C          -1.9740   -0.0400    1.5810 C.2     1  LIG1        0.1948
      6 C           1.9950    1.0050    0.4880 C.ar    1  LIG1        0.1208
      7 C           1.5360    1.2760    1.7710 C.ar    1  LIG1       -0.0193
      8 C           0.2490    0.9390    2.1290 C.ar    1  LIG1       -0.0475
      9 C           3.6370    1.1320   -1.2250 C.3     1  LIG1        0.1291
     10 O          -2.3480    0.1060    2.7310 O.2     1  LIG1       -0.2866
     11 C          -2.8920   -0.5760    0.5760 C.ar    1  LIG1        0.0447
     12 C          -3.6280    0.2160   -0.2630 C.ar    1  LIG1        0.0313
     13 C          -3.5920    1.6900   -0.2660 C.ar    1  LIG1       -0.0104
     14 C          -3.4440    2.3850   -1.4700 C.ar    1  LIG1       -0.0501
     15 C          -3.4120    3.7620   -1.4680 C.ar    1  LIG1       -0.0196
     16 C          -3.5260    4.4600   -0.2720 C.ar    1  LIG1        0.1169
     17 O          -3.4930    5.8180   -0.2750 O.3     1  LIG1       -0.5068
     18 C          -3.6730    3.7740    0.9270 C.ar    1  LIG1       -0.0196
     19 C          -3.7120    2.3970    0.9340 C.ar    1  LIG1       -0.0501
     20 S          -4.6160   -0.7560   -1.3340 S.2     1  LIG1       -0.0874
     21 C          -4.0260   -2.2630   -0.6460 C.ar    1  LIG1        0.0241
     22 C          -4.3500   -3.5840   -0.9730 C.ar    1  LIG1       -0.0058
     23 C          -3.7740   -4.6340   -0.2890 C.ar    1  LIG1        0.1180
     24 O          -4.0950   -5.9150   -0.6150 O.3     1  LIG1       -0.5067
     25 C          -0.5940    0.3240    1.2010 C.ar    1  LIG1        0.0225
     26 C           1.1580    0.3970   -0.4400 C.ar    1  LIG1       -0.0193
     27 C          -0.1280    0.0520   -0.0880 C.ar    1  LIG1       -0.0475
     28 O           3.2640    1.3380    0.1390 O.3     1  LIG1       -0.4867
     29 C           5.1190    1.4680   -1.4050 C.3     1  LIG1        0.0031
     30 N           5.9330    0.5220   -0.6310 N.4     1  LIG1        0.2376
     31 C           6.0020   -0.7830   -1.3000 C.3     1  LIG1       -0.0315
     32 C           6.7330   -1.7820   -0.4000 C.3     1  LIG1       -0.0098
     33 C           8.1430   -1.2620   -0.1080 C.3     1  LIG1       -0.0343
     34 C           8.0450    0.1200    0.5440 C.3     1  LIG1       -0.0098
     35 C           7.2760    1.0630   -0.3830 C.3     1  LIG1       -0.0315
     36 H          -1.8427   -2.9171    1.8098 H       1  LIG1        0.0625
     37 H          -2.4199   -5.1717    1.2301 H       1  LIG1        0.0654
     38 H           8.9259   -3.1913    0.3844 H       1  LIG1        0.0232
     39 H           8.3064   -2.3017    1.7547 H       1  LIG1        0.0232
     40 H           9.8417   -1.8592    1.0475 H       1  LIG1        0.0232
     41 H           2.1596    1.7301    2.4565 H       1  LIG1        0.0654
     42 H          -0.0917    1.1409    3.0820 H       1  LIG1        0.0626
     43 H           3.4684    0.1092   -1.4903 H       1  LIG1        0.0751
     44 H           3.0486    1.7656   -1.8552 H       1  LIG1        0.0751
     45 H          -3.3589    1.8672   -2.3587 H       1  LIG1        0.0625
     46 H          -3.3032    4.2761   -2.3562 H       1  LIG1        0.0654
     47 H          -3.3939    6.2824   -1.0827 H       1  LIG1        0.2921
     48 H          -3.7531    4.2965    1.8134 H       1  LIG1        0.0654
     49 H          -3.8297    1.8880    1.8240 H       1  LIG1        0.0625
     50 H          -5.0243   -3.7740   -1.7308 H       1  LIG1        0.0665
     51 H          -4.7140   -6.0836   -1.2980 H       1  LIG1        0.2921
     52 H           1.5006    0.2038   -1.3941 H       1  LIG1        0.0654
     53 H          -0.7465   -0.4067   -0.7751 H       1  LIG1        0.0626
     54 H           5.3036    2.4636   -1.0590 H       1  LIG1        0.0848
     55 H           5.3776    1.3967   -2.4408 H       1  LIG1        0.0848
     56 H           5.4810    0.3847    0.2730 H       1  LIG1        0.2034
     57 H           6.5318   -0.6821   -2.2242 H       1  LIG1        0.0814
     58 H           5.0108   -1.1369   -1.4928 H       1  LIG1        0.0814
     59 H           6.7964   -2.7287   -0.8945 H       1  LIG1        0.0319
     60 H           6.1959   -1.8970    0.5183 H       1  LIG1        0.0319
     61 H           8.6958   -1.1903   -1.0213 H       1  LIG1        0.0302
     62 H           9.0285    0.5068    0.7114 H       1  LIG1        0.0319
     63 H           7.5316    0.0394    1.4793 H       1  LIG1        0.0319
     64 H           7.1930    2.0255    0.0771 H       1  LIG1        0.0814
     65 H           7.7998    1.1543   -1.3116 H       1  LIG1        0.0814
@<TRIPOS>BOND
     1     1     2   ar
     2     2     3   ar
     3     5    25    1
     4     6    28    1
     5     7     6   ar
     6     8     7   ar
     7     9    29    1
     8    10     5    2
     9    11     1   ar
    10    11     5    1
    11    12    11   ar
    12    13    12    1
    13    13    14   ar
    14    15    14   ar
    15    16    15   ar
    16    17    16    1
    17    18    19   ar
    18    18    16   ar
    19    19    13   ar
    20    20    12   ar
    21    20    21   ar
    22    21    22   ar
    23    21     1   ar
    24    22    23   ar
    25    23    24    1
    26    23     3   ar
    27    25     8   ar
    28    25    27   ar
    29    26     6   ar
    30    27    26   ar
    31    28     9    1
    32    29    30    1
    33    30    31    1
    34    30    35    1
    35    31    32    1
    36    32    33    1
    37    33     4    1
    38    34    33    1
    39    35    34    1
    40     2    36    1
    41     3    37    1
    42     4    38    1
    43     4    39    1
    44     4    40    1
    45     7    41    1
    46     8    42    1
    47     9    43    1
    48     9    44    1
    49    14    45    1
    50    15    46    1
    51    17    47    1
    52    18    48    1
    53    19    49    1
    54    22    50    1
    55    24    51    1
    56    26    52    1
    57    27    53    1
    58    29    54    1
    59    29    55    1
    60    30    56    1
    61    31    57    1
    62    31    58    1
    63    32    59    1
    64    32    60    1
    65    33    61    1
    66    34    62    1
    67    34    63    1
    68    35    64    1
    69    35    65    1
