REMARK  10 active torsions:
REMARK  status: ('A' for Active; 'I' for Inactive)
REMARK    1  A    between atoms: C_33  and  C_4 
REMARK    2  A    between atoms: C_5  and  C_25 
REMARK    3  A    between atoms: C_11  and  C_5 
REMARK    4  A    between atoms: C_6  and  O_28 
REMARK    5  A    between atoms: C_9  and  C_29 
REMARK    6  A    between atoms: O_28  and  C_9 
REMARK    7  A    between atoms: C_13  and  C_12 
REMARK    8  A    between atoms: O_17  and  C_16 
REMARK    9  A    between atoms: C_23  and  O_24 
REMARK   10  A    between atoms: C_29  and  N_30 
ROOT
ATOM      1  C   LIG d   1       1.995   1.005   0.488  0.00  0.00     0.068 A 
ATOM      2  C   LIG d   1       1.536   1.276   1.771  0.00  0.00    -0.050 A 
ATOM      3  C   LIG d   1       0.249   0.939   2.129  0.00  0.00    -0.067 A 
ATOM      4  C   LIG d   1      -0.594   0.324   1.201  0.00  0.00     0.015 A 
ATOM      5  C   LIG d   1       1.158   0.397  -0.440  0.00  0.00    -0.050 A 
ATOM      6  C   LIG d   1      -0.128   0.052  -0.088  0.00  0.00    -0.067 A 
ATOM      7  H   LIG d   1       2.160   1.730   2.457  0.00  0.00     0.087 H 
ATOM      8  H   LIG d   1      -0.092   1.141   3.082  0.00  0.00     0.085 H 
ATOM      9  H   LIG d   1       1.501   0.204  -1.394  0.00  0.00     0.087 H 
ATOM     10  H   LIG d   1      -0.747  -0.407  -0.775  0.00  0.00     0.085 H 
ENDROOT
BRANCH   4  11
ATOM     11  C   LIG d   1      -1.974  -0.040   1.581  0.00  0.00     0.194 C 
ATOM     12  O   LIG d   1      -2.348   0.106   2.731  0.00  0.00    -0.287 OA
BRANCH  11  13
ATOM     13  C   LIG d   1      -2.892  -0.576   0.576  0.00  0.00     0.044 A 
ATOM     14  C   LIG d   1      -3.111  -2.009   0.374  0.00  0.00    -0.003 A 
ATOM     15  C   LIG d   1      -2.525  -3.094   1.056  0.00  0.00    -0.068 A 
ATOM     16  C   LIG d   1      -4.026  -2.263  -0.646  0.00  0.00     0.019 A 
ATOM     17  C   LIG d   1      -2.855  -4.384   0.725  0.00  0.00    -0.050 A 
ATOM     18  H   LIG d   1      -1.843  -2.917   1.810  0.00  0.00     0.085 H 
ATOM     19  C   LIG d   1      -3.774  -4.634  -0.289  0.00  0.00     0.067 A 
ATOM     20  H   LIG d   1      -2.420  -5.172   1.230  0.00  0.00     0.087 H 
ATOM     21  C   LIG d   1      -4.350  -3.584  -0.973  0.00  0.00    -0.034 A 
ATOM     22  H   LIG d   1      -5.024  -3.774  -1.731  0.00  0.00     0.089 H 
ATOM     23  S   LIG d   1      -4.616  -0.756  -1.334  0.00  0.00    -0.088 SA
ATOM     24  C   LIG d   1      -3.628   0.216  -0.263  0.00  0.00     0.031 A 
BRANCH  19  25
ATOM     25  O   LIG d   1      -4.095  -5.915  -0.615  0.00  0.00    -0.361 OA
ATOM     26  H   LIG d   1      -4.714  -6.084  -1.298  0.00  0.00     0.217 HD
ENDBRANCH  19  25
BRANCH  24  27
ATOM     27  C   LIG d   1      -3.592   1.690  -0.266  0.00  0.00    -0.018 A 
ATOM     28  C   LIG d   1      -3.444   2.385  -1.470  0.00  0.00    -0.069 A 
ATOM     29  C   LIG d   1      -3.412   3.762  -1.468  0.00  0.00    -0.050 A 
ATOM     30  H   LIG d   1      -3.359   1.867  -2.359  0.00  0.00     0.085 H 
ATOM     31  C   LIG d   1      -3.526   4.460  -0.272  0.00  0.00     0.065 A 
ATOM     32  H   LIG d   1      -3.303   4.276  -2.356  0.00  0.00     0.087 H 
ATOM     33  C   LIG d   1      -3.673   3.774   0.927  0.00  0.00    -0.050 A 
ATOM     34  C   LIG d   1      -3.712   2.397   0.934  0.00  0.00    -0.069 A 
ATOM     35  H   LIG d   1      -3.753   4.296   1.813  0.00  0.00     0.087 H 
ATOM     36  H   LIG d   1      -3.830   1.888   1.824  0.00  0.00     0.085 H 
BRANCH  31  37
ATOM     37  O   LIG d   1      -3.493   5.818  -0.275  0.00  0.00    -0.361 OA
ATOM     38  H   LIG d   1      -3.394   6.282  -1.083  0.00  0.00     0.217 HD
ENDBRANCH  31  37
ENDBRANCH  24  27
ENDBRANCH  11  13
ENDBRANCH   4  11
BRANCH   1  39
ATOM     39  O   LIG d   1       3.264   1.338   0.139  0.00  0.00    -0.350 OA
BRANCH  39  40
ATOM     40  C   LIG d   1       3.637   1.132  -1.225  0.00  0.00     0.049 C 
ATOM     41  H   LIG d   1       3.468   0.109  -1.490  0.00  0.00     0.077 H 
ATOM     42  H   LIG d   1       3.049   1.766  -1.855  0.00  0.00     0.077 H 
BRANCH  40  43
ATOM     43  C   LIG d   1       5.119   1.468  -1.405  0.00  0.00     0.103 C 
ATOM     44  H   LIG d   1       5.304   2.464  -1.059  0.00  0.00     0.079 H 
ATOM     45  H   LIG d   1       5.378   1.397  -2.441  0.00  0.00     0.079 H 
BRANCH  43  46
ATOM     46  N   LIG d   1       5.933   0.522  -0.631  0.00  0.00    -0.069 N 
ATOM     47  C   LIG d   1       6.002  -0.783  -1.300  0.00  0.00     0.084 C 
ATOM     48  C   LIG d   1       6.733  -1.782  -0.400  0.00  0.00    -0.039 C 
ATOM     49  H   LIG d   1       6.532  -0.682  -2.224  0.00  0.00     0.076 H 
ATOM     50  H   LIG d   1       5.011  -1.137  -1.493  0.00  0.00     0.076 H 
ATOM     51  C   LIG d   1       8.143  -1.262  -0.108  0.00  0.00    -0.055 C 
ATOM     52  H   LIG d   1       6.796  -2.729  -0.894  0.00  0.00     0.035 H 
ATOM     53  H   LIG d   1       6.196  -1.897   0.518  0.00  0.00     0.035 H 
ATOM     54  C   LIG d   1       8.045   0.120   0.544  0.00  0.00    -0.039 C 
ATOM     55  H   LIG d   1       8.696  -1.190  -1.021  0.00  0.00     0.039 H 
ATOM     56  C   LIG d   1       7.276   1.063  -0.383  0.00  0.00     0.084 C 
ATOM     57  H   LIG d   1       9.028   0.507   0.711  0.00  0.00     0.035 H 
ATOM     58  H   LIG d   1       7.532   0.039   1.479  0.00  0.00     0.035 H 
ATOM     59  H   LIG d   1       7.193   2.026   0.077  0.00  0.00     0.076 H 
ATOM     60  H   LIG d   1       7.800   1.154  -1.312  0.00  0.00     0.076 H 
ATOM     61  H   LIG d   1       5.481   0.385   0.273  0.00  0.00     0.280 HD
BRANCH  51  62
ATOM     62  C   LIG d   1       8.858  -2.226   0.841  0.00  0.00    -0.073 C 
ATOM     63  H   LIG d   1       8.926  -3.191   0.384  0.00  0.00     0.028 H 
ATOM     64  H   LIG d   1       8.306  -2.302   1.755  0.00  0.00     0.028 H 
ATOM     65  H   LIG d   1       9.842  -1.859   1.048  0.00  0.00     0.028 H 
ENDBRANCH  51  62
ENDBRANCH  43  46
ENDBRANCH  40  43
ENDBRANCH  39  40
ENDBRANCH   1  39
TORSDOF 10
