REMARK  9 active torsions:
REMARK  status: ('A' for Active; 'I' for Inactive)
REMARK    1  A    between atoms: C_3  and  O_33 
REMARK    2  A    between atoms: O_26  and  C_6 
REMARK    3  A    between atoms: C_7  and  C_13 
REMARK    4  A    between atoms: C_10  and  C_18 
REMARK    5  A    between atoms: N_19  and  C_10 
REMARK    6  A    between atoms: C_13  and  C_23 
REMARK    7  A    between atoms: O_17  and  C_16 
REMARK    8  A    between atoms: C_18  and  O_17 
REMARK    9  A    between atoms: C_30  and  C_31 
ROOT
ATOM      1  C   LIG d   1       0.235   0.332  -1.428  0.00  0.00     0.015 A 
ATOM      2  C   LIG d   1      -0.683   0.122  -2.460  0.00  0.00    -0.067 A 
ATOM      3  C   LIG d   1      -2.000   0.489  -2.293  0.00  0.00    -0.050 A 
ATOM      4  C   LIG d   1      -0.186   0.919  -0.232  0.00  0.00    -0.067 A 
ATOM      5  C   LIG d   1      -1.505   1.284  -0.073  0.00  0.00    -0.050 A 
ATOM      6  C   LIG d   1      -2.416   1.069  -1.100  0.00  0.00     0.068 A 
ATOM      7  H   LIG d   1      -0.375  -0.307  -3.346  0.00  0.00     0.085 H 
ATOM      8  H   LIG d   1      -2.679   0.333  -3.054  0.00  0.00     0.087 H 
ATOM      9  H   LIG d   1       0.490   1.079   0.531  0.00  0.00     0.085 H 
ATOM     10  H   LIG d   1      -1.817   1.718   0.810  0.00  0.00     0.087 H 
ENDROOT
BRANCH   1  11
ATOM     11  C   LIG d   1       1.648  -0.061  -1.602  0.00  0.00     0.194 C 
ATOM     12  O   LIG d   1       2.035  -0.482  -2.678  0.00  0.00    -0.287 OA
BRANCH  11  13
ATOM     13  C   LIG d   1       2.583   0.056  -0.484  0.00  0.00     0.044 A 
ATOM     14  C   LIG d   1       2.853  -0.973   0.376  0.00  0.00     0.031 A 
ATOM     15  S   LIG d   1       4.015  -0.483   1.592  0.00  0.00    -0.088 SA
ATOM     16  C   LIG d   1       4.143   1.143   0.933  0.00  0.00     0.019 A 
ATOM     17  C   LIG d   1       3.317   1.285  -0.179  0.00  0.00    -0.003 A 
ATOM     18  C   LIG d   1       4.919   2.224   1.365  0.00  0.00    -0.034 A 
ATOM     19  C   LIG d   1       3.280   2.524  -0.852  0.00  0.00    -0.068 A 
ATOM     20  C   LIG d   1       4.050   3.573  -0.421  0.00  0.00    -0.050 A 
ATOM     21  H   LIG d   1       2.669   2.642  -1.675  0.00  0.00     0.085 H 
ATOM     22  C   LIG d   1       4.878   3.426   0.688  0.00  0.00     0.067 A 
ATOM     23  H   LIG d   1       4.016   4.475  -0.921  0.00  0.00     0.087 H 
ATOM     24  H   LIG d   1       5.525   2.122   2.194  0.00  0.00     0.089 H 
BRANCH  14  25
ATOM     25  C   LIG d   1       2.247  -2.314   0.291  0.00  0.00    -0.018 A 
ATOM     26  C   LIG d   1       1.701  -2.910   1.431  0.00  0.00    -0.069 A 
ATOM     27  C   LIG d   1       1.136  -4.164   1.347  0.00  0.00    -0.050 A 
ATOM     28  H   LIG d   1       1.721  -2.412   2.334  0.00  0.00     0.085 H 
ATOM     29  C   LIG d   1       1.114  -4.838   0.132  0.00  0.00     0.065 A 
ATOM     30  H   LIG d   1       0.729  -4.603   2.187  0.00  0.00     0.087 H 
ATOM     31  C   LIG d   1       1.661  -4.252  -1.003  0.00  0.00    -0.050 A 
ATOM     32  C   LIG d   1       2.228  -2.999  -0.928  0.00  0.00    -0.069 A 
ATOM     33  H   LIG d   1       1.642  -4.756  -1.903  0.00  0.00     0.087 H 
ATOM     34  H   LIG d   1       2.638  -2.566  -1.770  0.00  0.00     0.085 H 
BRANCH  29  35
ATOM     35  O   LIG d   1       0.556  -6.074   0.054  0.00  0.00    -0.361 OA
ATOM     36  H   LIG d   1       0.187  -6.470   0.819  0.00  0.00     0.217 HD
ENDBRANCH  29  35
ENDBRANCH  14  25
BRANCH  22  37
ATOM     37  O   LIG d   1       5.635   4.471   1.115  0.00  0.00    -0.361 OA
ATOM     38  H   LIG d   1       6.192   4.372   1.862  0.00  0.00     0.217 HD
ENDBRANCH  22  37
ENDBRANCH  11  13
ENDBRANCH   1  11
BRANCH   6  39
ATOM     39  O   LIG d   1      -3.714   1.431  -0.940  0.00  0.00    -0.350 OA
BRANCH  39  40
ATOM     40  C   LIG d   1      -4.101   1.905   0.351  0.00  0.00     0.049 C 
ATOM     41  H   LIG d   1      -3.845   1.175   1.090  0.00  0.00     0.077 H 
ATOM     42  H   LIG d   1      -3.590   2.821   0.562  0.00  0.00     0.077 H 
BRANCH  40  43
ATOM     43  C   LIG d   1      -5.612   2.147   0.374  0.00  0.00     0.103 C 
ATOM     44  H   LIG d   1      -5.879   2.811  -0.421  0.00  0.00     0.079 H 
ATOM     45  H   LIG d   1      -5.889   2.583   1.311  0.00  0.00     0.079 H 
BRANCH  43  46
ATOM     46  N   LIG d   1      -6.315   0.869   0.202  0.00  0.00    -0.069 N 
ATOM     47  C   LIG d   1      -7.757   1.085  -0.019  0.00  0.00     0.084 C 
ATOM     48  C   LIG d   1      -8.510   0.297   1.073  0.00  0.00    -0.041 C 
ATOM     49  H   LIG d   1      -8.037   0.727  -0.988  0.00  0.00     0.076 H 
ATOM     50  H   LIG d   1      -7.997   2.127   0.031  0.00  0.00     0.076 H 
ATOM     51  C   LIG d   1      -7.477  -0.776   1.505  0.00  0.00    -0.041 C 
ATOM     52  H   LIG d   1      -9.394  -0.158   0.678  0.00  0.00     0.035 H 
ATOM     53  H   LIG d   1      -8.842   0.912   1.883  0.00  0.00     0.035 H 
ATOM     54  C   LIG d   1      -6.145   0.007   1.391  0.00  0.00     0.084 C 
ATOM     55  H   LIG d   1      -7.652  -1.104   2.508  0.00  0.00     0.035 H 
ATOM     56  H   LIG d   1      -7.507  -1.670   0.917  0.00  0.00     0.035 H 
ATOM     57  H   LIG d   1      -5.980   0.600   2.266  0.00  0.00     0.076 H 
ATOM     58  H   LIG d   1      -5.300  -0.643   1.301  0.00  0.00     0.076 H 
ATOM     59  H   LIG d   1      -5.909   0.411  -0.614  0.00  0.00     0.280 HD
ENDBRANCH  43  46
ENDBRANCH  40  43
ENDBRANCH  39  40
ENDBRANCH   6  39
TORSDOF 9
