@<TRIPOS>MOLECULE
LLC
 59 63 0 0 0
SMALL
GASTEIGER

@<TRIPOS>ATOM
      1 C           1.7010   -2.9100    1.4310 C.ar    1  LIG1       -0.0501
      2 C           1.1360   -4.1640    1.3470 C.ar    1  LIG1       -0.0196
      3 C           1.1140   -4.8380    0.1320 C.ar    1  LIG1        0.1169
      4 C           1.6610   -4.2520   -1.0030 C.ar    1  LIG1       -0.0196
      5 C           3.2800    2.5240   -0.8520 C.ar    1  LIG1       -0.0494
      6 C           4.8780    3.4260    0.6880 C.ar    1  LIG1        0.1180
      7 C           0.2350    0.3320   -1.4280 C.ar    1  LIG1        0.0225
      8 C          -0.6830    0.1220   -2.4600 C.ar    1  LIG1       -0.0475
      9 C          -2.0000    0.4890   -2.2930 C.ar    1  LIG1       -0.0193
     10 C          -5.6120    2.1470    0.3740 C.3     1  LIG1        0.0031
     11 C          -7.7570    1.0850   -0.0190 C.3     1  LIG1       -0.0316
     12 O           2.0350   -0.4820   -2.6780 O.2     1  LIG1       -0.2866
     13 C           1.6480   -0.0610   -1.6020 C.2     1  LIG1        0.1948
     14 C          -0.1860    0.9190   -0.2320 C.ar    1  LIG1       -0.0475
     15 C          -1.5050    1.2840   -0.0730 C.ar    1  LIG1       -0.0193
     16 C          -2.4160    1.0690   -1.1000 C.ar    1  LIG1        0.1208
     17 O          -3.7140    1.4310   -0.9400 O.3     1  LIG1       -0.4867
     18 C          -4.1010    1.9050    0.3510 C.3     1  LIG1        0.1291
     19 N          -6.3150    0.8690    0.2020 N.4     1  LIG1        0.2376
     20 C          -6.1450    0.0070    1.3910 C.3     1  LIG1       -0.0316
     21 C          -7.4770   -0.7760    1.5050 C.3     1  LIG1       -0.0077
     22 C          -8.5100    0.2970    1.0730 C.3     1  LIG1       -0.0077
     23 C           2.5830    0.0560   -0.4840 C.ar    1  LIG1        0.0447
     24 C           3.3170    1.2850   -0.1790 C.ar    1  LIG1        0.0008
     25 C           4.0500    3.5730   -0.4210 C.ar    1  LIG1       -0.0195
     26 O           5.6350    4.4710    1.1150 O.3     1  LIG1       -0.5067
     27 C           4.9190    2.2240    1.3650 C.ar    1  LIG1       -0.0058
     28 C           4.1430    1.1430    0.9330 C.ar    1  LIG1        0.0241
     29 S           4.0150   -0.4830    1.5920 S.2     1  LIG1       -0.0874
     30 C           2.8530   -0.9730    0.3760 C.ar    1  LIG1        0.0313
     31 C           2.2470   -2.3140    0.2910 C.ar    1  LIG1       -0.0104
     32 C           2.2280   -2.9990   -0.9280 C.ar    1  LIG1       -0.0501
     33 O           0.5560   -6.0740    0.0540 O.3     1  LIG1       -0.5068
     34 H           1.7209   -2.4117    2.3345 H       1  LIG1        0.0625
     35 H           0.7287   -4.6031    2.1874 H       1  LIG1        0.0654
     36 H           1.6424   -4.7562   -1.9032 H       1  LIG1        0.0654
     37 H           2.6687    2.6417   -1.6751 H       1  LIG1        0.0625
     38 H          -0.3747   -0.3075   -3.3463 H       1  LIG1        0.0626
     39 H          -2.6789    0.3332   -3.0545 H       1  LIG1        0.0654
     40 H          -5.8791    2.8109   -0.4215 H       1  LIG1        0.0848
     41 H          -5.8892    2.5833    1.3108 H       1  LIG1        0.0848
     42 H          -8.0368    0.7273   -0.9878 H       1  LIG1        0.0814
     43 H          -7.9967    2.1266    0.0312 H       1  LIG1        0.0814
     44 H           0.4900    1.0789    0.5312 H       1  LIG1        0.0626
     45 H          -1.8168    1.7177    0.8100 H       1  LIG1        0.0654
     46 H          -3.8455    1.1749    1.0903 H       1  LIG1        0.0751
     47 H          -3.5899    2.8210    0.5625 H       1  LIG1        0.0751
     48 H          -5.9089    0.4106   -0.6137 H       1  LIG1        0.2034
     49 H          -5.9802    0.6001    2.2662 H       1  LIG1        0.0814
     50 H          -5.3002   -0.6435    1.3011 H       1  LIG1        0.0814
     51 H          -7.6519   -1.1043    2.5083 H       1  LIG1        0.0319
     52 H          -7.5073   -1.6697    0.9174 H       1  LIG1        0.0319
     53 H          -9.3944   -0.1578    0.6782 H       1  LIG1        0.0319
     54 H          -8.8424    0.9121    1.8830 H       1  LIG1        0.0319
     55 H           4.0156    4.4753   -0.9208 H       1  LIG1        0.0654
     56 H           6.1923    4.3716    1.8617 H       1  LIG1        0.2921
     57 H           5.5251    2.1221    2.1940 H       1  LIG1        0.0665
     58 H           2.6383   -2.5663   -1.7703 H       1  LIG1        0.0625
     59 H           0.1868   -6.4704    0.8185 H       1  LIG1        0.2921
@<TRIPOS>BOND
     1     1     2   ar
     2     3    33    1
     3     3     2   ar
     4     4     3   ar
     5     5    24   ar
     6     6    27   ar
     7     7    13    1
     8     8     7   ar
     9     9     8   ar
    10    10    18    1
    11    11    19    1
    12    13    23    1
    13    13    12    2
    14    14     7   ar
    15    15    14   ar
    16    16     9   ar
    17    16    15   ar
    18    17    16    1
    19    18    17    1
    20    19    20    1
    21    19    10    1
    22    21    20    1
    23    22    11    1
    24    22    21    1
    25    23    30   ar
    26    24    23   ar
    27    24    28   ar
    28    25     5   ar
    29    25     6   ar
    30    26     6    1
    31    27    28   ar
    32    28    29   ar
    33    30    29   ar
    34    30    31    1
    35    31     1   ar
    36    32     4   ar
    37    32    31   ar
    38     1    34    1
    39     2    35    1
    40     4    36    1
    41     5    37    1
    42     8    38    1
    43     9    39    1
    44    10    40    1
    45    10    41    1
    46    11    42    1
    47    11    43    1
    48    14    44    1
    49    15    45    1
    50    18    46    1
    51    18    47    1
    52    19    48    1
    53    20    49    1
    54    20    50    1
    55    21    51    1
    56    21    52    1
    57    22    53    1
    58    22    54    1
    59    25    55    1
    60    26    56    1
    61    27    57    1
    62    32    58    1
    63    33    59    1
