@<TRIPOS>MOLECULE
ODE
 55 58 0 0 0
SMALL
GASTEIGER

@<TRIPOS>ATOM
      1 C           1.8840    0.7930   -0.9110 C.ar    1  LIG1       -0.0508
      2 C           2.9730    1.0260   -1.7220 C.ar    1  LIG1       -0.0196
      3 C           4.2140    1.3000   -1.1610 C.ar    1  LIG1        0.1169
      4 O           5.2850    1.5290   -1.9650 O.3     1  LIG1       -0.5068
      5 C           4.3630    1.3400    0.2190 C.ar    1  LIG1       -0.0196
      6 C           3.2800    1.1090    1.0390 C.ar    1  LIG1       -0.0508
      7 C           2.0290    0.8330    0.4790 C.ar    1  LIG1       -0.0188
      8 C           0.8670    0.5850    1.3500 C.2     1  LIG1       -0.0047
      9 C           0.2030    1.5810    2.3060 C.3     1  LIG1        0.0991
     10 O          -0.2520    0.6760    3.3680 O.3     1  LIG1       -0.3624
     11 C          -1.1530    1.9520    1.6280 C.3     1  LIG1        0.1022
     12 C          -0.9500    2.3110    0.1790 C.2     1  LIG1        0.3139
     13 O           0.1650    2.5000   -0.2460 O.2     1  LIG1       -0.2504
     14 O          -2.0080    2.4210   -0.6400 O.3     1  LIG1       -0.4646
     15 C          -1.7370    2.7700   -2.0230 C.3     1  LIG1        0.0897
     16 C          -3.0550    2.8480   -2.7960 C.3     1  LIG1       -0.0306
     17 C          -1.9540    0.6300    1.7650 C.3     1  LIG1        0.1022
     18 C          -2.3060    0.0710    0.4100 C.2     1  LIG1        0.3139
     19 O          -1.4620   -0.0050   -0.4500 O.2     1  LIG1       -0.2504
     20 O          -3.5590   -0.3420    0.1600 O.3     1  LIG1       -0.4646
     21 C          -3.8270   -0.8670   -1.1670 C.3     1  LIG1        0.0897
     22 C          -5.2700   -1.3700   -1.2340 C.3     1  LIG1       -0.0306
     23 C          -0.9310   -0.2920    2.5000 C.3     1  LIG1        0.0991
     24 C           0.1640   -0.5690    1.4660 C.2     1  LIG1       -0.0047
     25 C           0.4070   -1.8310    0.7460 C.ar    1  LIG1       -0.0188
     26 C          -0.6340   -2.4520    0.0490 C.ar    1  LIG1       -0.0508
     27 C          -0.4020   -3.6320   -0.6230 C.ar    1  LIG1       -0.0196
     28 C           0.8630   -4.2050   -0.6090 C.ar    1  LIG1        0.1169
     29 O           1.0870   -5.3690   -1.2730 O.3     1  LIG1       -0.5068
     30 C           1.9010   -3.5920    0.0820 C.ar    1  LIG1       -0.0196
     31 C           1.6800   -2.4090    0.7530 C.ar    1  LIG1       -0.0508
     32 H           0.9626    0.5893   -1.3288 H       1  LIG1        0.0625
     33 H           2.8667    0.9969   -2.7481 H       1  LIG1        0.0654
     34 H           5.1859    1.5023   -2.8964 H       1  LIG1        0.2921
     35 H           5.2869    1.5432    0.6314 H       1  LIG1        0.0654
     36 H           3.3921    1.1397    2.0644 H       1  LIG1        0.0625
     37 H           0.8099    2.4190    2.5786 H       1  LIG1        0.0655
     38 H          -1.6382    2.7996    2.0652 H       1  LIG1        0.0452
     39 H          -1.1090    2.0237   -2.4629 H       1  LIG1        0.0694
     40 H          -1.2437    3.7187   -2.0617 H       1  LIG1        0.0694
     41 H          -3.5480    1.8992   -2.7570 H       1  LIG1        0.0262
     42 H          -2.8559    3.1049   -3.8154 H       1  LIG1        0.0262
     43 H          -3.6828    3.5945   -2.3561 H       1  LIG1        0.0262
     44 H          -2.8865    0.7389    2.2783 H       1  LIG1        0.0452
     45 H          -3.1574   -1.6758   -1.3726 H       1  LIG1        0.0694
     46 H          -3.6848   -0.0933   -1.8923 H       1  LIG1        0.0694
     47 H          -5.4121   -2.1437   -0.5086 H       1  LIG1        0.0262
     48 H          -5.4678   -1.7571   -2.2117 H       1  LIG1        0.0262
     49 H          -5.9396   -0.5611   -1.0285 H       1  LIG1        0.0262
     50 H          -1.3568   -1.1635    2.9516 H       1  LIG1        0.0655
     51 H          -1.5744   -2.0271    0.0380 H       1  LIG1        0.0625
     52 H          -1.1697   -4.0910   -1.1378 H       1  LIG1        0.0654
     53 H           0.3885   -5.7841   -1.7396 H       1  LIG1        0.2921
     54 H           2.8385   -4.0232    0.0927 H       1  LIG1        0.0654
     55 H           2.4530   -1.9503    1.2600 H       1  LIG1        0.0625
@<TRIPOS>BOND
     1     1     7   ar
     2     1     2   ar
     3     2     3   ar
     4     3     5   ar
     5     3     4    1
     6     5     6   ar
     7     6     7   ar
     8     7     8    1
     9     8     9    1
    10     8    24    2
    11     9    10    1
    12     9    11    1
    13    10    23    1
    14    11    17    1
    15    11    12    1
    16    12    14    1
    17    12    13    2
    18    14    15    1
    19    15    16    1
    20    17    18    1
    21    17    23    1
    22    18    20    1
    23    18    19    2
    24    20    21    1
    25    21    22    1
    26    23    24    1
    27    24    25    1
    28    25    31   ar
    29    25    26   ar
    30    26    27   ar
    31    27    28   ar
    32    28    30   ar
    33    28    29    1
    34    30    31   ar
    35     1    32    1
    36     2    33    1
    37     4    34    1
    38     5    35    1
    39     6    36    1
    40     9    37    1
    41    11    38    1
    42    15    39    1
    43    15    40    1
    44    16    41    1
    45    16    42    1
    46    16    43    1
    47    17    44    1
    48    21    45    1
    49    21    46    1
    50    22    47    1
    51    22    48    1
    52    22    49    1
    53    23    50    1
    54    26    51    1
    55    27    52    1
    56    29    53    1
    57    30    54    1
    58    31    55    1
