REMARK  12 active torsions:
REMARK  status: ('A' for Active; 'I' for Inactive)
REMARK    1  A    between atoms: C_3  and  O_4 
REMARK    2  A    between atoms: C_7  and  C_8 
REMARK    3  A    between atoms: C_11  and  C_12 
REMARK    4  A    between atoms: C_12  and  O_14 
REMARK    5  A    between atoms: O_14  and  C_15 
REMARK    6  A    between atoms: C_15  and  C_16 
REMARK    7  A    between atoms: C_17  and  C_18 
REMARK    8  A    between atoms: C_18  and  O_20 
REMARK    9  A    between atoms: O_20  and  C_21 
REMARK   10  A    between atoms: C_21  and  C_22 
REMARK   11  A    between atoms: C_24  and  C_25 
REMARK   12  A    between atoms: C_28  and  O_29 
ROOT
ATOM      1  C   LIG d   1       0.867   0.585   1.350  0.00  0.00    -0.009 C 
ATOM      2  C   LIG d   1       0.203   1.581   2.306  0.00  0.00     0.079 C 
ATOM      3  O   LIG d   1      -0.252   0.676   3.368  0.00  0.00    -0.369 OA
ATOM      4  C   LIG d   1      -1.153   1.952   1.628  0.00  0.00     0.074 C 
ATOM      5  C   LIG d   1      -1.954   0.630   1.765  0.00  0.00     0.074 C 
ATOM      6  C   LIG d   1      -0.931  -0.292   2.500  0.00  0.00     0.079 C 
ATOM      7  C   LIG d   1       0.164  -0.569   1.466  0.00  0.00    -0.009 C 
ATOM      8  H   LIG d   1       0.810   2.419   2.579  0.00  0.00     0.092 H 
ATOM      9  H   LIG d   1      -1.638   2.800   2.065  0.00  0.00     0.061 H 
ATOM     10  H   LIG d   1      -2.886   0.739   2.278  0.00  0.00     0.061 H 
ATOM     11  H   LIG d   1      -1.357  -1.163   2.952  0.00  0.00     0.092 H 
ENDROOT
BRANCH   1  12
ATOM     12  C   LIG d   1       2.029   0.833   0.479  0.00  0.00    -0.026 A 
ATOM     13  C   LIG d   1       1.884   0.793  -0.911  0.00  0.00    -0.070 A 
ATOM     14  C   LIG d   1       2.973   1.026  -1.722  0.00  0.00    -0.050 A 
ATOM     15  H   LIG d   1       0.963   0.589  -1.329  0.00  0.00     0.084 H 
ATOM     16  C   LIG d   1       4.214   1.300  -1.161  0.00  0.00     0.065 A 
ATOM     17  H   LIG d   1       2.867   0.997  -2.748  0.00  0.00     0.087 H 
ATOM     18  C   LIG d   1       4.363   1.340   0.219  0.00  0.00    -0.050 A 
ATOM     19  C   LIG d   1       3.280   1.109   1.039  0.00  0.00    -0.070 A 
ATOM     20  H   LIG d   1       5.287   1.543   0.631  0.00  0.00     0.087 H 
ATOM     21  H   LIG d   1       3.392   1.140   2.064  0.00  0.00     0.084 H 
BRANCH  16  22
ATOM     22  O   LIG d   1       5.285   1.529  -1.965  0.00  0.00    -0.361 OA
ATOM     23  H   LIG d   1       5.186   1.502  -2.896  0.00  0.00     0.217 HD
ENDBRANCH  16  22
ENDBRANCH   1  12
BRANCH   7  24
ATOM     24  C   LIG d   1       0.407  -1.831   0.746  0.00  0.00    -0.026 A 
ATOM     25  C   LIG d   1       1.680  -2.409   0.753  0.00  0.00    -0.070 A 
ATOM     26  C   LIG d   1       1.901  -3.592   0.082  0.00  0.00    -0.050 A 
ATOM     27  H   LIG d   1       2.453  -1.950   1.260  0.00  0.00     0.084 H 
ATOM     28  C   LIG d   1       0.863  -4.205  -0.609  0.00  0.00     0.065 A 
ATOM     29  H   LIG d   1       2.838  -4.023   0.093  0.00  0.00     0.087 H 
ATOM     30  C   LIG d   1      -0.402  -3.632  -0.623  0.00  0.00    -0.050 A 
ATOM     31  C   LIG d   1      -0.634  -2.452   0.049  0.00  0.00    -0.070 A 
ATOM     32  H   LIG d   1      -1.170  -4.091  -1.138  0.00  0.00     0.087 H 
ATOM     33  H   LIG d   1      -1.574  -2.027   0.038  0.00  0.00     0.084 H 
BRANCH  28  34
ATOM     34  O   LIG d   1       1.087  -5.369  -1.273  0.00  0.00    -0.361 OA
ATOM     35  H   LIG d   1       0.389  -5.784  -1.740  0.00  0.00     0.217 HD
ENDBRANCH  28  34
ENDBRANCH   7  24
BRANCH   4  36
ATOM     36  C   LIG d   1      -0.950   2.311   0.179  0.00  0.00     0.266 C 
ATOM     37  O   LIG d   1       0.165   2.500  -0.246  0.00  0.00    -0.265 OA
BRANCH  36  38
ATOM     38  O   LIG d   1      -2.008   2.421  -0.640  0.00  0.00    -0.321 OA
BRANCH  38  39
ATOM     39  C   LIG d   1      -1.737   2.770  -2.023  0.00  0.00     0.025 C 
ATOM     40  H   LIG d   1      -1.109   2.024  -2.463  0.00  0.00     0.074 H 
ATOM     41  H   LIG d   1      -1.244   3.719  -2.062  0.00  0.00     0.074 H 
BRANCH  39  42
ATOM     42  C   LIG d   1      -3.055   2.848  -2.796  0.00  0.00    -0.056 C 
ATOM     43  H   LIG d   1      -3.548   1.899  -2.757  0.00  0.00     0.030 H 
ATOM     44  H   LIG d   1      -2.856   3.105  -3.815  0.00  0.00     0.030 H 
ATOM     45  H   LIG d   1      -3.683   3.595  -2.356  0.00  0.00     0.030 H 
ENDBRANCH  39  42
ENDBRANCH  38  39
ENDBRANCH  36  38
ENDBRANCH   4  36
BRANCH   5  46
ATOM     46  C   LIG d   1      -2.306   0.071   0.410  0.00  0.00     0.266 C 
ATOM     47  O   LIG d   1      -1.462  -0.005  -0.450  0.00  0.00    -0.265 OA
BRANCH  46  48
ATOM     48  O   LIG d   1      -3.559  -0.342   0.160  0.00  0.00    -0.321 OA
BRANCH  48  49
ATOM     49  C   LIG d   1      -3.827  -0.867  -1.167  0.00  0.00     0.025 C 
ATOM     50  H   LIG d   1      -3.157  -1.676  -1.373  0.00  0.00     0.074 H 
ATOM     51  H   LIG d   1      -3.685  -0.093  -1.892  0.00  0.00     0.074 H 
BRANCH  49  52
ATOM     52  C   LIG d   1      -5.270  -1.370  -1.234  0.00  0.00    -0.056 C 
ATOM     53  H   LIG d   1      -5.412  -2.144  -0.509  0.00  0.00     0.030 H 
ATOM     54  H   LIG d   1      -5.468  -1.757  -2.212  0.00  0.00     0.030 H 
ATOM     55  H   LIG d   1      -5.940  -0.561  -1.028  0.00  0.00     0.030 H 
ENDBRANCH  49  52
ENDBRANCH  48  49
ENDBRANCH  46  48
ENDBRANCH   5  46
TORSDOF 12
