REMARK  12 active torsions:
REMARK  status: ('A' for Active; 'I' for Inactive)
REMARK    1  A    between atoms: C_1  and  C_2 
REMARK    2  A    between atoms: C_2  and  C_3 
REMARK    3  A    between atoms: C_3  and  C_4 
REMARK    4  A    between atoms: C_10  and  C_11 
REMARK    5  A    between atoms: C_10  and  C_18 
REMARK    6  A    between atoms: C_14  and  O_15 
REMARK    7  A    between atoms: C_21  and  O_22 
REMARK    8  A    between atoms: O_22  and  C_23 
REMARK    9  A    between atoms: C_23  and  C_24 
REMARK   10  A    between atoms: C_24  and  N_25 
REMARK   11  A    between atoms: N_25  and  C_26 
REMARK   12  A    between atoms: N_25  and  C_27 
ROOT
ATOM      1  C   LIG d   1      -1.464  -0.024   2.293  0.00  0.00    -0.036 C 
ATOM      2  C   LIG d   1      -0.202   0.108   1.815  0.00  0.00    -0.009 C 
ENDROOT
BRANCH   2   3
ATOM      3  C   LIG d   1       0.948   0.061   2.743  0.00  0.00    -0.024 A 
ATOM      4  C   LIG d   1       1.932  -0.917   2.590  0.00  0.00    -0.070 A 
ATOM      5  C   LIG d   1       3.003  -0.957   3.456  0.00  0.00    -0.050 A 
ATOM      6  H   LIG d   1       1.857  -1.610   1.829  0.00  0.00     0.085 H 
ATOM      7  C   LIG d   1       3.104  -0.026   4.481  0.00  0.00     0.065 A 
ATOM      8  H   LIG d   1       3.731  -1.680   3.343  0.00  0.00     0.087 H 
ATOM      9  C   LIG d   1       2.128   0.948   4.638  0.00  0.00    -0.050 A 
ATOM     10  C   LIG d   1       1.057   0.999   3.771  0.00  0.00    -0.070 A 
ATOM     11  H   LIG d   1       2.204   1.635   5.404  0.00  0.00     0.087 H 
ATOM     12  H   LIG d   1       0.337   1.730   3.882  0.00  0.00     0.085 H 
BRANCH   7  13
ATOM     13  O   LIG d   1       4.162  -0.069   5.334  0.00  0.00    -0.361 OA
ATOM     14  H   LIG d   1       4.822  -0.726   5.229  0.00  0.00     0.217 HD
ENDBRANCH   7  13
ENDBRANCH   2   3
BRANCH   2  15
ATOM     15  C   LIG d   1       0.023   0.301   0.366  0.00  0.00    -0.024 A 
ATOM     16  C   LIG d   1       0.664   1.451  -0.095  0.00  0.00    -0.070 A 
ATOM     17  C   LIG d   1       0.873   1.627  -1.446  0.00  0.00    -0.050 A 
ATOM     18  H   LIG d   1       0.981   2.169   0.575  0.00  0.00     0.085 H 
ATOM     19  C   LIG d   1       0.446   0.661  -2.348  0.00  0.00     0.068 A 
ATOM     20  H   LIG d   1       1.347   2.478  -1.788  0.00  0.00     0.087 H 
ATOM     21  C   LIG d   1      -0.191  -0.485  -1.892  0.00  0.00    -0.050 A 
ATOM     22  C   LIG d   1      -0.399  -0.669  -0.542  0.00  0.00    -0.070 A 
ATOM     23  H   LIG d   1      -0.509  -1.200  -2.565  0.00  0.00     0.087 H 
ATOM     24  H   LIG d   1      -0.867  -1.524  -0.203  0.00  0.00     0.085 H 
BRANCH  19  25
ATOM     25  O   LIG d   1       0.654   0.837  -3.679  0.00  0.00    -0.350 OA
BRANCH  25  26
ATOM     26  C   LIG d   1       0.111  -0.308  -4.337  0.00  0.00     0.049 C 
ATOM     27  H   LIG d   1      -0.935  -0.380  -4.122  0.00  0.00     0.077 H 
ATOM     28  H   LIG d   1       0.609  -1.189  -3.989  0.00  0.00     0.077 H 
BRANCH  26  29
ATOM     29  C   LIG d   1       0.313  -0.172  -5.847  0.00  0.00     0.102 C 
ATOM     30  H   LIG d   1      -0.124   0.745  -6.184  0.00  0.00     0.079 H 
ATOM     31  H   LIG d   1      -0.155  -0.995  -6.345  0.00  0.00     0.079 H 
BRANCH  29  32
ATOM     32  N   LIG d   1       1.750  -0.170  -6.151  0.00  0.00    -0.077 N 
ATOM     33  H   LIG d   1       2.270   0.460  -5.540  0.00  0.00     0.279 HD
BRANCH  32  34
ATOM     34  C   LIG d   1       2.209  -1.561  -6.033  0.00  0.00     0.066 C 
ATOM     35  H   LIG d   1       1.637  -2.182  -6.690  0.00  0.00     0.068 H 
ATOM     36  H   LIG d   1       2.081  -1.895  -5.024  0.00  0.00     0.068 H 
ATOM     37  H   LIG d   1       3.244  -1.619  -6.299  0.00  0.00     0.068 H 
ENDBRANCH  32  34
BRANCH  32  38
ATOM     38  C   LIG d   1       1.882   0.198  -7.567  0.00  0.00     0.066 C 
ATOM     39  H   LIG d   1       1.322  -0.488  -8.168  0.00  0.00     0.068 H 
ATOM     40  H   LIG d   1       2.913   0.161  -7.851  0.00  0.00     0.068 H 
ATOM     41  H   LIG d   1       1.507   1.189  -7.714  0.00  0.00     0.068 H 
ENDBRANCH  32  38
ENDBRANCH  29  32
ENDBRANCH  26  29
ENDBRANCH  25  26
ENDBRANCH  19  25
ENDBRANCH   2  15
BRANCH   1  42
ATOM     42  C   LIG d   1      -1.694  -0.220   3.770  0.00  0.00    -0.043 C 
ATOM     43  H   LIG d   1      -1.302   0.619   4.306  0.00  0.00     0.039 H 
ATOM     44  H   LIG d   1      -2.744  -0.305   3.959  0.00  0.00     0.039 H 
BRANCH  42  45
ATOM     45  C   LIG d   1      -0.987  -1.496   4.231  0.00  0.00    -0.073 C 
ATOM     46  H   LIG d   1      -1.150  -1.635   5.279  0.00  0.00     0.028 H 
ATOM     47  H   LIG d   1       0.063  -1.411   4.042  0.00  0.00     0.028 H 
ATOM     48  H   LIG d   1      -1.379  -2.335   3.695  0.00  0.00     0.028 H 
ENDBRANCH  42  45
ENDBRANCH   1  42
BRANCH   1  49
ATOM     49  C   LIG d   1      -2.608   0.022   1.371  0.00  0.00    -0.029 A 
ATOM     50  C   LIG d   1      -3.473  -1.072   1.267  0.00  0.00    -0.072 A 
ATOM     51  C   LIG d   1      -4.543  -1.020   0.399  0.00  0.00    -0.082 A 
ATOM     52  H   LIG d   1      -3.311  -1.916   1.838  0.00  0.00     0.084 H 
ATOM     53  C   LIG d   1      -4.764   0.110  -0.366  0.00  0.00    -0.083 A 
ATOM     54  H   LIG d   1      -5.181  -1.827   0.320  0.00  0.00     0.083 H 
ATOM     55  C   LIG d   1      -3.913   1.197  -0.269  0.00  0.00    -0.082 A 
ATOM     56  H   LIG d   1      -5.568   0.143  -1.013  0.00  0.00     0.083 H 
ATOM     57  C   LIG d   1      -2.842   1.164   0.597  0.00  0.00    -0.072 A 
ATOM     58  H   LIG d   1      -4.081   2.035  -0.847  0.00  0.00     0.083 H 
ATOM     59  H   LIG d   1      -2.214   1.979   0.675  0.00  0.00     0.084 H 
ENDBRANCH   1  49
TORSDOF 12
