@<TRIPOS>MOLECULE
OHT
 59 61 0 0 0
SMALL
GASTEIGER

@<TRIPOS>ATOM
      1 C          -0.9870   -1.4960    4.2310 C.3     1  LIG1       -0.0612
      2 C          -1.6940   -0.2200    3.7700 C.3     1  LIG1       -0.0294
      3 C          -1.4640   -0.0240    2.2930 C.2     1  LIG1       -0.0322
      4 C          -2.6080    0.0220    1.3710 C.ar    1  LIG1       -0.0213
      5 C          -3.4730   -1.0720    1.2670 C.ar    1  LIG1       -0.0543
      6 C          -4.5430   -1.0200    0.3990 C.ar    1  LIG1       -0.0612
      7 C          -4.7640    0.1100   -0.3660 C.ar    1  LIG1       -0.0617
      8 C          -3.9130    1.1970   -0.2690 C.ar    1  LIG1       -0.0612
      9 C          -2.8420    1.1640    0.5970 C.ar    1  LIG1       -0.0543
     10 C          -0.2020    0.1080    1.8150 C.2     1  LIG1       -0.0070
     11 C           0.9480    0.0610    2.7430 C.ar    1  LIG1       -0.0168
     12 C           1.9320   -0.9170    2.5900 C.ar    1  LIG1       -0.0506
     13 C           3.0030   -0.9570    3.4560 C.ar    1  LIG1       -0.0196
     14 C           3.1040   -0.0260    4.4810 C.ar    1  LIG1        0.1169
     15 O           4.1620   -0.0690    5.3340 O.3     1  LIG1       -0.5068
     16 C           2.1280    0.9480    4.6380 C.ar    1  LIG1       -0.0196
     17 C           1.0570    0.9990    3.7710 C.ar    1  LIG1       -0.0506
     18 C           0.0230    0.3010    0.3660 C.ar    1  LIG1       -0.0168
     19 C           0.6640    1.4510   -0.0950 C.ar    1  LIG1       -0.0506
     20 C           0.8730    1.6270   -1.4460 C.ar    1  LIG1       -0.0194
     21 C           0.4460    0.6610   -2.3480 C.ar    1  LIG1        0.1208
     22 O           0.6540    0.8370   -3.6790 O.3     1  LIG1       -0.4867
     23 C           0.1110   -0.3080   -4.3370 C.3     1  LIG1        0.1291
     24 C           0.3130   -0.1720   -5.8470 C.3     1  LIG1        0.0026
     25 N           1.7500   -0.1700   -6.1510 N.4     1  LIG1        0.2333
     26 C           2.2090   -1.5610   -6.0330 C.3     1  LIG1       -0.0432
     27 C           1.8820    0.1980   -7.5670 C.3     1  LIG1       -0.0432
     28 C          -0.1910   -0.4850   -1.8920 C.ar    1  LIG1       -0.0194
     29 C          -0.3990   -0.6690   -0.5420 C.ar    1  LIG1       -0.0506
     30 H          -1.1501   -1.6353    5.2793 H       1  LIG1        0.0233
     31 H           0.0626   -1.4105    4.0416 H       1  LIG1        0.0233
     32 H          -1.3790   -2.3347    3.6945 H       1  LIG1        0.0233
     33 H          -1.3020    0.6187    4.3065 H       1  LIG1        0.0311
     34 H          -2.7436   -0.3054    3.9594 H       1  LIG1        0.0311
     35 H          -3.3109   -1.9159    1.8384 H       1  LIG1        0.0624
     36 H          -5.1810   -1.8273    0.3202 H       1  LIG1        0.0618
     37 H          -5.5676    0.1432   -1.0127 H       1  LIG1        0.0618
     38 H          -4.0812    2.0351   -0.8473 H       1  LIG1        0.0618
     39 H          -2.2141    1.9793    0.6746 H       1  LIG1        0.0624
     40 H           1.8575   -1.6098    1.8287 H       1  LIG1        0.0625
     41 H           3.7309   -1.6798    3.3426 H       1  LIG1        0.0654
     42 H           4.8218   -0.7260    5.2293 H       1  LIG1        0.2921
     43 H           2.2039    1.6349    5.4045 H       1  LIG1        0.0654
     44 H           0.3368    1.7298    3.8820 H       1  LIG1        0.0625
     45 H           0.9814    2.1692    0.5747 H       1  LIG1        0.0625
     46 H           1.3473    2.4775   -1.7877 H       1  LIG1        0.0654
     47 H          -0.9347   -0.3803   -4.1222 H       1  LIG1        0.0751
     48 H           0.6085   -1.1889   -3.9886 H       1  LIG1        0.0751
     49 H          -0.1241    0.7446   -6.1841 H       1  LIG1        0.0848
     50 H          -0.1555   -0.9951   -6.3449 H       1  LIG1        0.0848
     51 H           2.2702    0.4597   -5.5400 H       1  LIG1        0.2029
     52 H           1.6367   -2.1824   -6.6897 H       1  LIG1        0.0777
     53 H           2.0807   -1.8946   -5.0245 H       1  LIG1        0.0777
     54 H           3.2438   -1.6189   -6.2989 H       1  LIG1        0.0777
     55 H           1.3217   -0.4879   -8.1675 H       1  LIG1        0.0777
     56 H           2.9130    0.1605   -7.8506 H       1  LIG1        0.0777
     57 H           1.5074    1.1894   -7.7143 H       1  LIG1        0.0777
     58 H          -0.5092   -1.2001   -2.5647 H       1  LIG1        0.0654
     59 H          -0.8669   -1.5243   -0.2035 H       1  LIG1        0.0625
@<TRIPOS>BOND
     1     1     2    1
     2     2     3    1
     3     3     4    1
     4     3    10    2
     5     4     5   ar
     6     4     9   ar
     7     5     6   ar
     8     6     7   ar
     9     7     8   ar
    10     8     9   ar
    11    10    11    1
    12    10    18    1
    13    11    12   ar
    14    11    17   ar
    15    12    13   ar
    16    13    14   ar
    17    14    15    1
    18    14    16   ar
    19    16    17   ar
    20    18    19   ar
    21    18    29   ar
    22    19    20   ar
    23    20    21   ar
    24    21    22    1
    25    21    28   ar
    26    22    23    1
    27    23    24    1
    28    24    25    1
    29    25    26    1
    30    25    27    1
    31    28    29   ar
    32     1    30    1
    33     1    31    1
    34     1    32    1
    35     2    33    1
    36     2    34    1
    37     5    35    1
    38     6    36    1
    39     7    37    1
    40     8    38    1
    41     9    39    1
    42    12    40    1
    43    13    41    1
    44    15    42    1
    45    16    43    1
    46    17    44    1
    47    19    45    1
    48    20    46    1
    49    23    47    1
    50    23    48    1
    51    24    49    1
    52    24    50    1
    53    25    51    1
    54    26    52    1
    55    26    53    1
    56    26    54    1
    57    27    55    1
    58    27    56    1
    59    27    57    1
    60    28    58    1
    61    29    59    1
