@<TRIPOS>MOLECULE
PIQ
 29 31 0 0 0
SMALL
GASTEIGER

@<TRIPOS>ATOM
      1 N           0.2910    0.0670    4.9950 N.pl3   1  LIG1       -0.3288
      2 C           0.0020    0.0170    3.6500 C.ar    1  LIG1        0.1952
      3 N           0.9170    0.1490    2.6460 N.ar    1  LIG1       -0.3138
      4 C           0.2270    0.0450    1.4490 C.ar    1  LIG1        0.0894
      5 C           0.5980    0.0890    0.1170 C.ar    1  LIG1       -0.0253
      6 C          -0.3980   -0.0630   -0.8500 C.ar    1  LIG1        0.0023
      7 C          -0.0560   -0.0190   -2.2930 C.ar    1  LIG1       -0.0164
      8 C          -0.8980    0.6330   -3.1910 C.ar    1  LIG1       -0.0540
      9 C          -0.5760    0.6700   -4.5320 C.ar    1  LIG1       -0.0612
     10 C           0.5790    0.0610   -4.9860 C.ar    1  LIG1       -0.0617
     11 C           1.4190   -0.5880   -4.0990 C.ar    1  LIG1       -0.0612
     12 C           1.1090   -0.6260   -2.7540 C.ar    1  LIG1       -0.0540
     13 N          -1.1930   -0.1640    3.1430 N.ar    1  LIG1       -0.1949
     14 C           2.3570    0.3650    2.8050 C.3     1  LIG1        0.0150
     15 C          -1.1230   -0.1600    1.7880 C.ar    1  LIG1        0.1798
     16 N          -2.0380   -0.3010    0.8310 N.ar    1  LIG1       -0.2338
     17 C          -1.7180   -0.2590   -0.4420 C.ar    1  LIG1        0.0378
     18 H           1.2184    0.2070    5.2943 H       1  LIG1        0.1451
     19 H          -0.4297   -0.0372    5.6575 H       1  LIG1        0.1451
     20 H           1.5836    0.2302   -0.1545 H       1  LIG1        0.0646
     21 H          -1.7610    1.0875   -2.8538 H       1  LIG1        0.0624
     22 H          -1.1989    1.1535   -5.1978 H       1  LIG1        0.0618
     23 H           0.8154    0.0906   -5.9901 H       1  LIG1        0.0618
     24 H           2.2784   -1.0443   -4.4429 H       1  LIG1        0.0618
     25 H           1.7399   -1.1036   -2.0915 H       1  LIG1        0.0624
     26 H           2.5993    0.4018    3.8466 H       1  LIG1        0.0457
     27 H           2.6323    1.2895    2.3419 H       1  LIG1        0.0457
     28 H           2.8914   -0.4385    2.3427 H       1  LIG1        0.0457
     29 H          -2.4564   -0.3731   -1.1538 H       1  LIG1        0.0836
@<TRIPOS>BOND
     1     1     2    1
     2     2     3   ar
     3     2    13   ar
     4     3     4   ar
     5     3    14    1
     6     4     5   ar
     7     4    15   ar
     8     5     6   ar
     9     6     7    1
    10     6    17   ar
    11     7     8   ar
    12     7    12   ar
    13     8     9   ar
    14     9    10   ar
    15    10    11   ar
    16    11    12   ar
    17    13    15   ar
    18    15    16   ar
    19    16    17   ar
    20     1    18    1
    21     1    19    1
    22     5    20    1
    23     8    21    1
    24     9    22    1
    25    10    23    1
    26    11    24    1
    27    12    25    1
    28    14    26    1
    29    14    27    1
    30    14    28    1
    31    17    29    1
