REMARK  3 active torsions:
REMARK  status: ('A' for Active; 'I' for Inactive)
REMARK    1  A    between atoms: N_1  and  C_2 
REMARK    2  A    between atoms: N_3  and  C_15 
REMARK    3  A    between atoms: C_6  and  C_7 
ROOT
ATOM      1  C   LIG d   1       0.002   0.017   3.650  0.00  0.00     0.679 A 
ATOM      2  N   LIG d   1       0.917   0.149   2.646  0.00  0.00    -0.184 N 
ATOM      3  C   LIG d   1       0.227   0.045   1.449  0.00  0.00     0.096 A 
ATOM      4  C   LIG d   1       0.598   0.089   0.117  0.00  0.00    -0.041 A 
ATOM      5  C   LIG d   1      -0.398  -0.063  -0.850  0.00  0.00    -0.008 A 
ATOM      6  N   LIG d   1      -1.193  -0.164   3.143  0.00  0.00    -0.174 N 
ATOM      7  HN  LIG d   1      -2.048  -0.289   3.686  1.00  0.00     0.186 HD
ATOM      8  C   LIG d   1      -1.123  -0.160   1.788  0.00  0.00     0.148 A 
ATOM      9  N   LIG d   1      -2.038  -0.301   0.831  0.00  0.00    -0.349 N 
ATOM     10  HN  LIG d   1      -3.013  -0.445   1.093  1.00  0.00     0.167 HD
ATOM     11  C   LIG d   1      -1.718  -0.259  -0.442  0.00  0.00    -0.010 A 
ATOM     12  H   LIG d   1       1.584   0.230  -0.154  0.00  0.00     0.088 H 
ATOM     13  H   LIG d   1      -2.456  -0.373  -1.154  0.00  0.00     0.112 H 
ENDROOT
BRANCH   5  14
ATOM     14  C   LIG d   1      -0.056  -0.019  -2.293  0.00  0.00    -0.025 A 
ATOM     15  C   LIG d   1      -0.898   0.633  -3.191  0.00  0.00    -0.072 A 
ATOM     16  C   LIG d   1      -0.576   0.670  -4.532  0.00  0.00    -0.082 A 
ATOM     17  H   LIG d   1      -1.761   1.087  -2.854  0.00  0.00     0.084 H 
ATOM     18  C   LIG d   1       0.579   0.061  -4.986  0.00  0.00    -0.083 A 
ATOM     19  H   LIG d   1      -1.199   1.153  -5.198  0.00  0.00     0.083 H 
ATOM     20  C   LIG d   1       1.419  -0.588  -4.099  0.00  0.00    -0.082 A 
ATOM     21  H   LIG d   1       0.815   0.091  -5.990  0.00  0.00     0.083 H 
ATOM     22  C   LIG d   1       1.109  -0.626  -2.754  0.00  0.00    -0.072 A 
ATOM     23  H   LIG d   1       2.278  -1.044  -4.443  0.00  0.00     0.083 H 
ATOM     24  H   LIG d   1       1.740  -1.104  -2.091  0.00  0.00     0.084 H 
ENDBRANCH   5  14
BRANCH   2  25
ATOM     25  C   LIG d   1       2.357   0.365   2.805  0.00  0.00     0.003 C 
ATOM     26  H   LIG d   1       2.599   0.402   3.847  0.00  0.00     0.058 H 
ATOM     27  H   LIG d   1       2.632   1.290   2.342  0.00  0.00     0.058 H 
ATOM     28  H   LIG d   1       2.891  -0.439   2.343  0.00  0.00     0.058 H 
ENDBRANCH   2  25
BRANCH   1  29
ATOM     29  N   LIG d   1       0.291   0.067   4.995  0.00  0.00    -0.234 N 
ATOM     30  H   LIG d   1       1.218   0.207   5.294  0.00  0.00     0.174 HD
ATOM     31  H   LIG d   1      -0.430  -0.037   5.657  0.00  0.00     0.174 HD
ENDBRANCH   1  29
TORSDOF 3
