@<TRIPOS>MOLECULE
PTI
 65 69 0 0 0
SMALL
GASTEIGER

@<TRIPOS>ATOM
      1 C          -0.6390    0.0460    7.0130 C.3     1  LIG1       -0.0318
      2 C           0.5240   -0.5400    7.8150 C.3     1  LIG1       -0.0123
      3 C           1.7740    0.3150    7.5880 C.3     1  LIG1       -0.0434
      4 N          -0.3170    0.0220    5.5820 N.4     1  LIG1        0.2376
      5 C           2.0510    0.4010    6.0840 C.3     1  LIG1       -0.0123
      6 C           0.8080    0.9380    5.3730 C.3     1  LIG1       -0.0318
      7 C          -1.4700    0.6030    4.8810 C.3     1  LIG1        0.0031
      8 C          -1.2010    0.6100    3.3750 C.3     1  LIG1        0.1291
      9 O          -0.9930   -0.7290    2.9220 O.3     1  LIG1       -0.4867
     10 C          -0.7600   -0.6600    1.5850 C.ar    1  LIG1        0.1208
     11 C          -0.5210   -1.8190    0.8610 C.ar    1  LIG1       -0.0196
     12 C          -0.2830   -1.7460   -0.4970 C.ar    1  LIG1       -0.0530
     13 C          -0.2840   -0.5200   -1.1350 C.ar    1  LIG1       -0.0225
     14 C          -0.5170    0.6360   -0.4150 C.ar    1  LIG1       -0.0530
     15 C          -0.7600    0.5680    0.9420 C.ar    1  LIG1       -0.0196
     16 C          -0.0260   -0.4440   -2.6180 C.3     1  LIG1        0.0742
     17 N          -0.7640    0.6900   -3.1780 N.pl3   1  LIG1       -0.3185
     18 C          -0.4110    0.7600   -4.6030 C.3     1  LIG1        0.0171
     19 C           1.0040    1.3250   -4.7310 C.3     1  LIG1       -0.0114
     20 C           1.9390    0.5390   -3.8460 C.ar    1  LIG1       -0.0372
     21 C           1.4520   -0.2870   -2.8560 C.ar    1  LIG1       -0.0193
     22 C           2.3350   -0.9970   -2.0550 C.ar    1  LIG1       -0.0528
     23 C           3.6960   -0.8810   -2.2460 C.ar    1  LIG1       -0.0198
     24 C           4.1870   -0.0500   -3.2420 C.ar    1  LIG1        0.1171
     25 C           3.3040    0.6640   -4.0370 C.ar    1  LIG1       -0.0166
     26 O           5.5270    0.0670   -3.4350 O.3     1  LIG1       -0.5068
     27 C          -2.1190    0.3560   -3.1160 C.ar    1  LIG1        0.0304
     28 C          -3.0060    1.1700   -2.4230 C.ar    1  LIG1       -0.0406
     29 C          -4.3450    0.8380   -2.3640 C.ar    1  LIG1       -0.0600
     30 C          -4.8040   -0.3040   -2.9940 C.ar    1  LIG1       -0.0616
     31 C          -3.9240   -1.1170   -3.6850 C.ar    1  LIG1       -0.0600
     32 C          -2.5840   -0.7870   -3.7520 C.ar    1  LIG1       -0.0406
     33 H          -0.8103    1.0561    7.3218 H       1  LIG1        0.0814
     34 H          -1.5184   -0.5380    7.1873 H       1  LIG1        0.0814
     35 H           0.7125   -1.5424    7.4916 H       1  LIG1        0.0317
     36 H           0.2762   -0.5450    8.8559 H       1  LIG1        0.0317
     37 H           2.6104   -0.1336    8.0820 H       1  LIG1        0.0269
     38 H           1.6182    1.2966    7.9843 H       1  LIG1        0.0269
     39 H          -0.1016   -0.9210    5.2584 H       1  LIG1        0.2034
     40 H           2.2861   -0.5725    5.7073 H       1  LIG1        0.0317
     41 H           2.8774    1.0575    5.9079 H       1  LIG1        0.0317
     42 H           0.5605    1.9009    5.7685 H       1  LIG1        0.0814
     43 H           1.0076    1.0197    4.3250 H       1  LIG1        0.0814
     44 H          -1.6253    1.6059    5.2202 H       1  LIG1        0.0848
     45 H          -2.3427    0.0183    5.0846 H       1  LIG1        0.0848
     46 H          -0.3286    1.1950    3.1713 H       1  LIG1        0.0751
     47 H          -2.0411    1.0327    2.8646 H       1  LIG1        0.0751
     48 H          -0.5211   -2.7347    1.3370 H       1  LIG1        0.0654
     49 H          -0.1042   -2.6076   -1.0361 H       1  LIG1        0.0622
     50 H          -0.5093    1.5510   -0.8922 H       1  LIG1        0.0622
     51 H          -0.9416    1.4311    1.4777 H       1  LIG1        0.0654
     52 H          -0.3581   -1.3408   -3.0980 H       1  LIG1        0.0600
     53 H          -1.1011    1.3985   -5.1138 H       1  LIG1        0.0467
     54 H          -0.4539   -0.2169   -5.0374 H       1  LIG1        0.0467
     55 H           1.0069    2.3519   -4.4305 H       1  LIG1        0.0328
     56 H           1.3278    1.2511   -5.7481 H       1  LIG1        0.0328
     57 H           1.9715   -1.6149   -1.3126 H       1  LIG1        0.0622
     58 H           4.3485   -1.4121   -1.6483 H       1  LIG1        0.0654
     59 H           3.6654    1.2904   -4.7732 H       1  LIG1        0.0657
     60 H           6.1219   -0.4166   -2.8964 H       1  LIG1        0.2921
     61 H          -2.6643    2.0226   -1.9524 H       1  LIG1        0.0636
     62 H          -5.0038    1.4429   -1.8491 H       1  LIG1        0.0618
     63 H          -5.8052   -0.5502   -2.9485 H       1  LIG1        0.0618
     64 H          -4.2686   -1.9709   -4.1510 H       1  LIG1        0.0618
     65 H          -1.9293   -1.3898   -4.2745 H       1  LIG1        0.0636
@<TRIPOS>BOND
     1     1     2    1
     2     1     4    1
     3     2     3    1
     4     3     5    1
     5     4     6    1
     6     4     7    1
     7     5     6    1
     8     7     8    1
     9     8     9    1
    10     9    10    1
    11    10    11   ar
    12    10    15   ar
    13    11    12   ar
    14    12    13   ar
    15    13    14   ar
    16    13    16    1
    17    14    15   ar
    18    16    17    1
    19    16    21    1
    20    17    18    1
    21    17    27    1
    22    18    19    1
    23    19    20    1
    24    20    21   ar
    25    20    25   ar
    26    21    22   ar
    27    22    23   ar
    28    23    24   ar
    29    24    25   ar
    30    24    26    1
    31    27    28   ar
    32    27    32   ar
    33    28    29   ar
    34    29    30   ar
    35    30    31   ar
    36    31    32   ar
    37     1    33    1
    38     1    34    1
    39     2    35    1
    40     2    36    1
    41     3    37    1
    42     3    38    1
    43     4    39    1
    44     5    40    1
    45     5    41    1
    46     6    42    1
    47     6    43    1
    48     7    44    1
    49     7    45    1
    50     8    46    1
    51     8    47    1
    52    11    48    1
    53    12    49    1
    54    14    50    1
    55    15    51    1
    56    16    52    1
    57    18    53    1
    58    18    54    1
    59    19    55    1
    60    19    56    1
    61    22    57    1
    62    23    58    1
    63    25    59    1
    64    26    60    1
    65    28    61    1
    66    29    62    1
    67    30    63    1
    68    31    64    1
    69    32    65    1
