REMARK  7 active torsions:
REMARK  status: ('A' for Active; 'I' for Inactive)
REMARK    1  A    between atoms: N_4  and  C_7 
REMARK    2  A    between atoms: C_7  and  C_8 
REMARK    3  A    between atoms: C_8  and  O_9 
REMARK    4  A    between atoms: O_9  and  C_10 
REMARK    5  A    between atoms: C_13  and  C_16 
REMARK    6  A    between atoms: N_17  and  C_27 
REMARK    7  A    between atoms: C_24  and  O_26 
ROOT
ATOM      1  C   LIG d   1      -0.760  -0.660   1.585  0.00  0.00     0.068 A 
ATOM      2  C   LIG d   1      -0.521  -1.819   0.861  0.00  0.00    -0.050 A 
ATOM      3  C   LIG d   1      -0.283  -1.746  -0.497  0.00  0.00    -0.072 A 
ATOM      4  C   LIG d   1      -0.284  -0.520  -1.135  0.00  0.00    -0.035 A 
ATOM      5  C   LIG d   1      -0.517   0.636  -0.415  0.00  0.00    -0.072 A 
ATOM      6  C   LIG d   1      -0.760   0.568   0.942  0.00  0.00    -0.050 A 
ATOM      7  H   LIG d   1      -0.521  -2.735   1.337  0.00  0.00     0.087 H 
ATOM      8  H   LIG d   1      -0.104  -2.608  -1.036  0.00  0.00     0.084 H 
ATOM      9  H   LIG d   1      -0.509   1.551  -0.892  0.00  0.00     0.084 H 
ATOM     10  H   LIG d   1      -0.942   1.431   1.478  0.00  0.00     0.087 H 
ENDROOT
BRANCH   4  11
ATOM     11  C   LIG d   1      -0.026  -0.444  -2.618  0.00  0.00     0.050 C 
ATOM     12  N   LIG d   1      -0.764   0.690  -3.178  0.00  0.00    -0.270 NA
ATOM     13  C   LIG d   1      -0.411   0.760  -4.603  0.00  0.00    -0.012 C 
ATOM     14  C   LIG d   1       1.004   1.325  -4.731  0.00  0.00    -0.029 C 
ATOM     15  H   LIG d   1      -1.101   1.399  -5.114  0.00  0.00     0.056 H 
ATOM     16  H   LIG d   1      -0.454  -0.217  -5.037  0.00  0.00     0.056 H 
ATOM     17  C   LIG d   1       1.939   0.539  -3.846  0.00  0.00    -0.046 A 
ATOM     18  H   LIG d   1       1.007   2.352  -4.431  0.00  0.00     0.042 H 
ATOM     19  H   LIG d   1       1.328   1.251  -5.748  0.00  0.00     0.042 H 
ATOM     20  C   LIG d   1       1.452  -0.287  -2.856  0.00  0.00    -0.029 A 
ATOM     21  C   LIG d   1       3.304   0.664  -4.037  0.00  0.00    -0.044 A 
ATOM     22  C   LIG d   1       2.335  -0.997  -2.055  0.00  0.00    -0.072 A 
ATOM     23  C   LIG d   1       3.696  -0.881  -2.246  0.00  0.00    -0.050 A 
ATOM     24  H   LIG d   1       1.972  -1.615  -1.313  0.00  0.00     0.084 H 
ATOM     25  C   LIG d   1       4.187  -0.050  -3.242  0.00  0.00     0.066 A 
ATOM     26  H   LIG d   1       4.348  -1.412  -1.648  0.00  0.00     0.087 H 
ATOM     27  H   LIG d   1       3.665   1.290  -4.773  0.00  0.00     0.088 H 
ATOM     28  H   LIG d   1      -0.358  -1.341  -3.098  0.00  0.00     0.079 H 
BRANCH  12  29
ATOM     29  C   LIG d   1      -2.119   0.356  -3.116  0.00  0.00     0.011 A 
ATOM     30  C   LIG d   1      -3.006   1.170  -2.423  0.00  0.00    -0.062 A 
ATOM     31  C   LIG d   1      -4.345   0.838  -2.364  0.00  0.00    -0.081 A 
ATOM     32  H   LIG d   1      -2.664   2.023  -1.952  0.00  0.00     0.086 H 
ATOM     33  C   LIG d   1      -4.804  -0.304  -2.994  0.00  0.00    -0.083 A 
ATOM     34  H   LIG d   1      -5.004   1.443  -1.849  0.00  0.00     0.083 H 
ATOM     35  C   LIG d   1      -3.924  -1.117  -3.685  0.00  0.00    -0.081 A 
ATOM     36  H   LIG d   1      -5.805  -0.550  -2.949  0.00  0.00     0.083 H 
ATOM     37  C   LIG d   1      -2.584  -0.787  -3.752  0.00  0.00    -0.062 A 
ATOM     38  H   LIG d   1      -4.269  -1.971  -4.151  0.00  0.00     0.083 H 
ATOM     39  H   LIG d   1      -1.929  -1.390  -4.274  0.00  0.00     0.086 H 
ENDBRANCH  12  29
BRANCH  25  40
ATOM     40  O   LIG d   1       5.527   0.067  -3.435  0.00  0.00    -0.361 OA
ATOM     41  H   LIG d   1       6.122  -0.417  -2.896  0.00  0.00     0.217 HD
ENDBRANCH  25  40
ENDBRANCH   4  11
BRANCH   1  42
ATOM     42  O   LIG d   1      -0.993  -0.729   2.922  0.00  0.00    -0.350 OA
BRANCH  42  43
ATOM     43  C   LIG d   1      -1.201   0.610   3.375  0.00  0.00     0.049 C 
ATOM     44  H   LIG d   1      -0.329   1.195   3.171  0.00  0.00     0.077 H 
ATOM     45  H   LIG d   1      -2.041   1.033   2.865  0.00  0.00     0.077 H 
BRANCH  43  46
ATOM     46  C   LIG d   1      -1.470   0.603   4.881  0.00  0.00     0.103 C 
ATOM     47  H   LIG d   1      -1.625   1.606   5.220  0.00  0.00     0.079 H 
ATOM     48  H   LIG d   1      -2.343   0.018   5.085  0.00  0.00     0.079 H 
BRANCH  46  49
ATOM     49  N   LIG d   1      -0.317   0.022   5.582  0.00  0.00    -0.069 N 
ATOM     50  C   LIG d   1      -0.639   0.046   7.013  0.00  0.00     0.084 C 
ATOM     51  C   LIG d   1       0.524  -0.540   7.815  0.00  0.00    -0.042 C 
ATOM     52  H   LIG d   1      -0.810   1.056   7.322  0.00  0.00     0.076 H 
ATOM     53  H   LIG d   1      -1.518  -0.538   7.187  0.00  0.00     0.076 H 
ATOM     54  C   LIG d   1       1.774   0.315   7.588  0.00  0.00    -0.062 C 
ATOM     55  H   LIG d   1       0.713  -1.542   7.492  0.00  0.00     0.035 H 
ATOM     56  H   LIG d   1       0.276  -0.545   8.856  0.00  0.00     0.035 H 
ATOM     57  C   LIG d   1       2.051   0.401   6.084  0.00  0.00    -0.042 C 
ATOM     58  H   LIG d   1       2.610  -0.134   8.082  0.00  0.00     0.033 H 
ATOM     59  H   LIG d   1       1.618   1.297   7.984  0.00  0.00     0.033 H 
ATOM     60  C   LIG d   1       0.808   0.938   5.373  0.00  0.00     0.084 C 
ATOM     61  H   LIG d   1       2.286  -0.573   5.707  0.00  0.00     0.035 H 
ATOM     62  H   LIG d   1       2.877   1.058   5.908  0.00  0.00     0.035 H 
ATOM     63  H   LIG d   1       0.560   1.901   5.769  0.00  0.00     0.076 H 
ATOM     64  H   LIG d   1       1.008   1.020   4.325  0.00  0.00     0.076 H 
ATOM     65  H   LIG d   1      -0.102  -0.921   5.258  0.00  0.00     0.280 HD
ENDBRANCH  46  49
ENDBRANCH  43  46
ENDBRANCH  42  43
ENDBRANCH   1  42
TORSDOF 7
