REMARK  9 active torsions:
REMARK  status: ('A' for Active; 'I' for Inactive)
REMARK    1  A    between atoms: C_3  and  O_4 
REMARK    2  A    between atoms: C_8  and  C_9 
REMARK    3  A    between atoms: C_12  and  O_13 
REMARK    4  A    between atoms: C_17  and  C_18 
REMARK    5  A    between atoms: C_18  and  C_20 
REMARK    6  A    between atoms: C_23  and  O_26 
REMARK    7  A    between atoms: O_26  and  C_27 
REMARK    8  A    between atoms: C_27  and  C_28 
REMARK    9  A    between atoms: C_28  and  N_29 
ROOT
ATOM      1  C   LIG d   1       0.362   1.442  -0.509  0.00  0.00     0.015 A 
ATOM      2  C   LIG d   1       0.431   2.559   0.326  0.00  0.00    -0.067 A 
ATOM      3  C   LIG d   1       0.800   2.408   1.645  0.00  0.00    -0.050 A 
ATOM      4  C   LIG d   1       1.103   1.147   2.143  0.00  0.00     0.068 A 
ATOM      5  C   LIG d   1       1.034   0.033   1.315  0.00  0.00    -0.050 A 
ATOM      6  C   LIG d   1       0.661   0.175  -0.002  0.00  0.00    -0.067 A 
ATOM      7  H   LIG d   1       0.206   3.496  -0.044  0.00  0.00     0.085 H 
ATOM      8  H   LIG d   1       0.851   3.232   2.264  0.00  0.00     0.087 H 
ATOM      9  H   LIG d   1       1.263  -0.902   1.688  0.00  0.00     0.087 H 
ATOM     10  H   LIG d   1       0.602  -0.653  -0.615  0.00  0.00     0.085 H 
ENDROOT
BRANCH   1  11
ATOM     11  C   LIG d   1      -0.033   1.600  -1.923  0.00  0.00     0.194 C 
ATOM     12  O   LIG d   1      -0.392   2.687  -2.338  0.00  0.00    -0.287 OA
BRANCH  11  13
ATOM     13  C   LIG d   1       0.005   0.449  -2.826  0.00  0.00     0.044 A 
ATOM     14  C   LIG d   1      -1.096  -0.382  -2.975  0.00  0.00     0.031 A 
ATOM     15  S   LIG d   1      -0.542  -1.590  -4.161  0.00  0.00    -0.088 SA
ATOM     16  C   LIG d   1       1.106  -0.994  -4.430  0.00  0.00     0.019 A 
ATOM     17  C   LIG d   1       2.150  -1.419  -5.225  0.00  0.00    -0.034 A 
ATOM     18  C   LIG d   1       1.211   0.135  -3.598  0.00  0.00    -0.003 A 
ATOM     19  C   LIG d   1       3.348  -0.722  -5.215  0.00  0.00     0.067 A 
ATOM     20  H   LIG d   1       2.040  -2.252  -5.824  0.00  0.00     0.089 H 
ATOM     21  C   LIG d   1       3.478   0.398  -4.401  0.00  0.00    -0.050 A 
ATOM     22  C   LIG d   1       2.444   0.825  -3.610  0.00  0.00    -0.068 A 
ATOM     23  H   LIG d   1       4.370   0.917  -4.393  0.00  0.00     0.087 H 
ATOM     24  H   LIG d   1       2.567   1.660  -3.016  0.00  0.00     0.085 H 
BRANCH  14  25
ATOM     25  C   LIG d   1      -2.411  -0.284  -2.314  0.00  0.00    -0.018 A 
ATOM     26  C   LIG d   1      -2.969  -1.406  -1.694  0.00  0.00    -0.069 A 
ATOM     27  C   LIG d   1      -4.197  -1.310  -1.078  0.00  0.00    -0.050 A 
ATOM     28  H   LIG d   1      -2.462  -2.305  -1.698  0.00  0.00     0.085 H 
ATOM     29  C   LIG d   1      -4.881  -0.100  -1.073  0.00  0.00     0.065 A 
ATOM     30  H   LIG d   1      -4.610  -2.137  -0.620  0.00  0.00     0.087 H 
ATOM     31  C   LIG d   1      -4.333   1.015  -1.693  0.00  0.00    -0.050 A 
ATOM     32  C   LIG d   1      -3.103   0.930  -2.307  0.00  0.00    -0.069 A 
ATOM     33  H   LIG d   1      -4.848   1.909  -1.694  0.00  0.00     0.087 H 
ATOM     34  H   LIG d   1      -2.693   1.761  -2.761  0.00  0.00     0.085 H 
BRANCH  29  35
ATOM     35  O   LIG d   1      -6.092  -0.010  -0.464  0.00  0.00    -0.361 OA
ATOM     36  H   LIG d   1      -6.463  -0.762  -0.045  0.00  0.00     0.217 HD
ENDBRANCH  29  35
ENDBRANCH  14  25
BRANCH  19  37
ATOM     37  O   LIG d   1       4.385  -1.129  -5.994  0.00  0.00    -0.361 OA
ATOM     38  H   LIG d   1       5.193  -0.655  -5.984  0.00  0.00     0.217 HD
ENDBRANCH  19  37
ENDBRANCH  11  13
ENDBRANCH   1  11
BRANCH   4  39
ATOM     39  O   LIG d   1       1.466   1.002   3.443  0.00  0.00    -0.350 OA
BRANCH  39  40
ATOM     40  C   LIG d   1       1.828  -0.368   3.621  0.00  0.00     0.049 C 
ATOM     41  H   LIG d   1       2.614  -0.621   2.940  0.00  0.00     0.077 H 
ATOM     42  H   LIG d   1       0.978  -0.989   3.431  0.00  0.00     0.077 H 
BRANCH  40  43
ATOM     43  C   LIG d   1       2.308  -0.587   5.057  0.00  0.00     0.103 C 
ATOM     44  H   LIG d   1       3.159   0.034   5.247  0.00  0.00     0.079 H 
ATOM     45  H   LIG d   1       2.579  -1.614   5.190  0.00  0.00     0.079 H 
BRANCH  43  46
ATOM     46  N   LIG d   1       1.230  -0.240   5.992  0.00  0.00    -0.069 N 
ATOM     47  C   LIG d   1       1.752  -0.471   7.343  0.00  0.00     0.084 C 
ATOM     48  C   LIG d   1       0.677  -0.137   8.378  0.00  0.00    -0.042 C 
ATOM     49  H   LIG d   1       2.607   0.152   7.505  0.00  0.00     0.076 H 
ATOM     50  H   LIG d   1       2.031  -1.499   7.443  0.00  0.00     0.076 H 
ATOM     51  C   LIG d   1      -0.530  -1.055   8.165  0.00  0.00    -0.062 C 
ATOM     52  H   LIG d   1       0.375   0.883   8.264  0.00  0.00     0.035 H 
ATOM     53  H   LIG d   1       1.069  -0.282   9.363  0.00  0.00     0.035 H 
ATOM     54  C   LIG d   1      -1.012  -0.915   6.718  0.00  0.00    -0.042 C 
ATOM     55  H   LIG d   1      -1.317  -0.775   8.834  0.00  0.00     0.033 H 
ATOM     56  H   LIG d   1      -0.251  -2.070   8.357  0.00  0.00     0.033 H 
ATOM     57  C   LIG d   1       0.151  -1.209   5.769  0.00  0.00     0.084 C 
ATOM     58  H   LIG d   1      -1.365   0.082   6.553  0.00  0.00     0.035 H 
ATOM     59  H   LIG d   1      -1.808  -1.607   6.536  0.00  0.00     0.035 H 
ATOM     60  H   LIG d   1       0.518  -2.197   5.952  0.00  0.00     0.076 H 
ATOM     61  H   LIG d   1      -0.190  -1.133   4.758  0.00  0.00     0.076 H 
ATOM     62  H   LIG d   1       0.907   0.720   5.871  0.00  0.00     0.280 HD
ENDBRANCH  43  46
ENDBRANCH  40  43
ENDBRANCH  39  40
ENDBRANCH   4  39
TORSDOF 9
