@<TRIPOS>MOLECULE
RAL
 62 66 0 0 0
SMALL
GASTEIGER

@<TRIPOS>ATOM
      1 C           2.4440    0.8250   -3.6100 C.ar    1  LIG1       -0.0494
      2 C           3.4780    0.3980   -4.4010 C.ar    1  LIG1       -0.0195
      3 C           3.3480   -0.7220   -5.2150 C.ar    1  LIG1        0.1180
      4 O           4.3850   -1.1290   -5.9940 O.3     1  LIG1       -0.5067
      5 C           2.1500   -1.4190   -5.2250 C.ar    1  LIG1       -0.0058
      6 C           1.1060   -0.9940   -4.4300 C.ar    1  LIG1        0.0241
      7 S          -0.5420   -1.5900   -4.1610 S.2     1  LIG1       -0.0874
      8 C          -1.0960   -0.3820   -2.9750 C.ar    1  LIG1        0.0313
      9 C          -2.4110   -0.2840   -2.3140 C.ar    1  LIG1       -0.0104
     10 C          -2.9690   -1.4060   -1.6940 C.ar    1  LIG1       -0.0501
     11 C          -4.1970   -1.3100   -1.0780 C.ar    1  LIG1       -0.0196
     12 C          -4.8810   -0.1000   -1.0730 C.ar    1  LIG1        0.1169
     13 O          -6.0920   -0.0100   -0.4640 O.3     1  LIG1       -0.5068
     14 C          -4.3330    1.0150   -1.6930 C.ar    1  LIG1       -0.0196
     15 C          -3.1030    0.9300   -2.3070 C.ar    1  LIG1       -0.0501
     16 C           1.2110    0.1350   -3.5980 C.ar    1  LIG1        0.0008
     17 C           0.0050    0.4490   -2.8260 C.ar    1  LIG1        0.0447
     18 C          -0.0330    1.6000   -1.9230 C.2     1  LIG1        0.1948
     19 O          -0.3920    2.6870   -2.3380 O.2     1  LIG1       -0.2866
     20 C           0.3620    1.4420   -0.5090 C.ar    1  LIG1        0.0225
     21 C           0.4310    2.5590    0.3260 C.ar    1  LIG1       -0.0475
     22 C           0.8000    2.4080    1.6450 C.ar    1  LIG1       -0.0193
     23 C           1.1030    1.1470    2.1430 C.ar    1  LIG1        0.1208
     24 C           1.0340    0.0330    1.3150 C.ar    1  LIG1       -0.0193
     25 C           0.6610    0.1750   -0.0020 C.ar    1  LIG1       -0.0475
     26 O           1.4660    1.0020    3.4430 O.3     1  LIG1       -0.4867
     27 C           1.8280   -0.3680    3.6210 C.3     1  LIG1        0.1291
     28 C           2.3080   -0.5870    5.0570 C.3     1  LIG1        0.0031
     29 N           1.2300   -0.2400    5.9920 N.4     1  LIG1        0.2376
     30 C           1.7520   -0.4710    7.3430 C.3     1  LIG1       -0.0318
     31 C           0.6770   -0.1370    8.3780 C.3     1  LIG1       -0.0123
     32 C          -0.5300   -1.0550    8.1650 C.3     1  LIG1       -0.0434
     33 C          -1.0120   -0.9150    6.7180 C.3     1  LIG1       -0.0123
     34 C           0.1510   -1.2090    5.7690 C.3     1  LIG1       -0.0318
     35 H           2.5671    1.6600   -3.0162 H       1  LIG1        0.0625
     36 H           4.3699    0.9172   -4.3926 H       1  LIG1        0.0654
     37 H           5.1930   -0.6546   -5.9839 H       1  LIG1        0.2921
     38 H           2.0397   -2.2519   -5.8243 H       1  LIG1        0.0665
     39 H          -2.4616   -2.3046   -1.6979 H       1  LIG1        0.0625
     40 H          -4.6098   -2.1373   -0.6196 H       1  LIG1        0.0654
     41 H          -6.4629   -0.7617   -0.0453 H       1  LIG1        0.2921
     42 H          -4.8483    1.9091   -1.6938 H       1  LIG1        0.0654
     43 H          -2.6933    1.7613   -2.7610 H       1  LIG1        0.0625
     44 H           0.2061    3.4958   -0.0440 H       1  LIG1        0.0626
     45 H           0.8513    3.2325    2.2635 H       1  LIG1        0.0654
     46 H           1.2627   -0.9016    1.6881 H       1  LIG1        0.0654
     47 H           0.6022   -0.6535   -0.6145 H       1  LIG1        0.0626
     48 H           2.6137   -0.6205    2.9400 H       1  LIG1        0.0751
     49 H           0.9775   -0.9889    3.4309 H       1  LIG1        0.0751
     50 H           3.1586    0.0336    5.2473 H       1  LIG1        0.0848
     51 H           2.5785   -1.6137    5.1899 H       1  LIG1        0.0848
     52 H           0.9071    0.7200    5.8713 H       1  LIG1        0.2034
     53 H           2.6067    0.1521    7.5049 H       1  LIG1        0.0814
     54 H           2.0311   -1.4991    7.4428 H       1  LIG1        0.0814
     55 H           0.3752    0.8832    8.2640 H       1  LIG1        0.0317
     56 H           1.0692   -0.2817    9.3630 H       1  LIG1        0.0317
     57 H          -1.3166   -0.7748    8.8341 H       1  LIG1        0.0269
     58 H          -0.2513   -2.0700    8.3572 H       1  LIG1        0.0269
     59 H          -1.3649    0.0816    6.5533 H       1  LIG1        0.0317
     60 H          -1.8078   -1.6067    6.5360 H       1  LIG1        0.0317
     61 H           0.5176   -2.1975    5.9516 H       1  LIG1        0.0814
     62 H          -0.1897   -1.1326    4.7576 H       1  LIG1        0.0814
@<TRIPOS>BOND
     1     1     2   ar
     2     1    16   ar
     3     2     3   ar
     4     3     4    1
     5     3     5   ar
     6     5     6   ar
     7     6     7   ar
     8     6    16   ar
     9     7     8   ar
    10     8     9    1
    11     8    17   ar
    12     9    10   ar
    13     9    15   ar
    14    10    11   ar
    15    11    12   ar
    16    12    13    1
    17    12    14   ar
    18    14    15   ar
    19    16    17   ar
    20    17    18    1
    21    18    19    2
    22    18    20    1
    23    20    21   ar
    24    20    25   ar
    25    21    22   ar
    26    22    23   ar
    27    23    24   ar
    28    23    26    1
    29    24    25   ar
    30    26    27    1
    31    27    28    1
    32    28    29    1
    33    29    30    1
    34    29    34    1
    35    30    31    1
    36    31    32    1
    37    32    33    1
    38    33    34    1
    39     1    35    1
    40     2    36    1
    41     4    37    1
    42     5    38    1
    43    10    39    1
    44    11    40    1
    45    13    41    1
    46    14    42    1
    47    15    43    1
    48    21    44    1
    49    22    45    1
    50    24    46    1
    51    25    47    1
    52    27    48    1
    53    27    49    1
    54    28    50    1
    55    28    51    1
    56    29    52    1
    57    30    53    1
    58    30    54    1
    59    31    55    1
    60    31    56    1
    61    32    57    1
    62    32    58    1
    63    33    59    1
    64    33    60    1
    65    34    61    1
    66    34    62    1
