SRR
  CCTOOLS-0106121327

 51 53  0  0  0  0  0  0  0  0999 V2000
    7.2650    0.5810    0.8490 C   0  0  0  0  0
   -1.3420    3.1210   -1.5620 C   0  0  0  0  0
    1.3490   -4.7820   -0.4090 O   0  0  0  0  0
   -6.7850    0.4400    0.5600 O   0  0  0  0  0
    0.0750   -3.2230    0.8580 C   0  0  0  0  0
    0.7490   -2.7010   -1.3930 C   0  0  0  0  0
   -4.8830   -0.1520   -0.7390 C   0  0  0  0  0
   -4.6120    0.8510    1.4330 C   0  0  0  0  0
    3.0730    1.6530   -1.2100 C   0  0  0  0  0
    3.0520    0.7120    1.0080 C   0  0  0  0  0
   -0.5560   -2.0010    0.9570 C   0  0  0  0  0
    0.1210   -1.4770   -1.3020 C   0  0  0  0  0
   -3.5130   -0.2140   -0.8860 C   0  0  0  0  0
   -3.2410    0.7930    1.2940 C   0  0  0  0  0
    1.6970    1.7150   -1.2030 C   0  0  0  0  0
    1.6760    0.7700    1.0260 C   0  0  0  0  0
    5.7480    0.5690    1.0470 C   0  0  0  0  0
   -1.1800    2.6730   -0.1080 C   0  0  0  0  0
    5.1110    1.0940   -0.1190 O   0  0  0  0  0
   -0.4840    1.3370   -0.0690 C   0  0  0  0  0
   -1.2120    0.1940   -0.0220 C   0  0  0  0  0
    0.7280   -3.5760   -0.3150 C   0  0  0  0  0
   -5.4350    0.3800    0.4190 C   0  0  0  0  0
    3.7540    1.1530   -0.1070 C   0  0  0  0  0
    0.9850    1.2730   -0.0830 C   0  0  0  0  0
   -0.5360   -1.1190   -0.1240 C   0  0  0  0  0
   -2.6820    0.2590    0.1310 C   0  0  0  0  0
    7.7510    0.1800    1.7390 H   0  0  0  0  0
    7.5240   -0.0330   -0.0140 H   0  0  0  0  0
    7.6020    1.6040    0.6810 H   0  0  0  0  0
   -0.3610    3.3260   -1.9900 H   0  0  0  0  0
   -1.8310    2.3320   -2.1340 H   0  0  0  0  0
   -1.9500    4.0250   -1.5980 H   0  0  0  0  0
    0.7820   -5.4910   -0.7430 H   0  0  0  0  0
   -7.1730   -0.3450    0.9710 H   0  0  0  0  0
    0.0640   -3.9050    1.6960 H   0  0  0  0  0
    1.2580   -2.9790   -2.3040 H   0  0  0  0  0
   -5.5270   -0.5130   -1.5270 H   0  0  0  0  0
   -5.0450    1.2640    2.3320 H   0  0  0  0  0
    3.6240    1.9900   -2.0760 H   0  0  0  0  0
    3.5860    0.3240    1.8630 H   0  0  0  0  0
   -1.0640   -1.7270    1.8700 H   0  0  0  0  0
    0.1380   -0.7970   -2.1400 H   0  0  0  0  0
   -3.0850   -0.6280   -1.7860 H   0  0  0  0  0
   -2.6020    1.1590    2.0830 H   0  0  0  0  0
    1.1680    2.1040   -2.0610 H   0  0  0  0  0
    1.1310    0.4270    1.8930 H   0  0  0  0  0
    5.4120   -0.4540    1.2150 H   0  0  0  0  0
    5.4900    1.1830    1.9100 H   0  0  0  0  0
   -0.5870    3.4080    0.4350 H   0  0  0  0  0
   -2.1620    2.5840    0.3560 H   0  0  0  0  0
  1 17  1  0  0  0
  1 28  1  0  0  0
  1 29  1  0  0  0
  1 30  1  0  0  0
  2 18  1  0  0  0
  2 31  1  0  0  0
  2 32  1  0  0  0
  2 33  1  0  0  0
  3 22  1  0  0  0
  3 34  1  0  0  0
  4 23  1  0  0  0
  4 35  1  0  0  0
  5 11  2  0  0  0
  5 22  1  0  0  0
  5 36  1  0  0  0
  6 12  1  0  0  0
  6 22  2  0  0  0
  6 37  1  0  0  0
  7 13  2  0  0  0
  7 23  1  0  0  0
  7 38  1  0  0  0
  8 14  1  0  0  0
  8 23  2  0  0  0
  8 39  1  0  0  0
  9 15  2  0  0  0
  9 24  1  0  0  0
  9 40  1  0  0  0
 10 16  1  0  0  0
 10 24  2  0  0  0
 10 41  1  0  0  0
 11 26  1  0  0  0
 11 42  1  0  0  0
 12 26  2  0  0  0
 12 43  1  0  0  0
 13 27  1  0  0  0
 13 44  1  0  0  0
 14 27  2  0  0  0
 14 45  1  0  0  0
 15 25  1  0  0  0
 15 46  1  0  0  0
 16 25  2  0  0  0
 16 47  1  0  0  0
 17 19  1  0  0  0
 17 48  1  0  0  0
 17 49  1  0  0  0
 18 20  1  0  0  0
 18 50  1  0  0  0
 18 51  1  0  0  0
 19 24  1  0  0  0
 20 21  2  0  0  0
 20 25  1  0  0  0
 21 26  1  0  0  0
 21 27  1  0  0  0
M  END
$$$$
