@<TRIPOS>MOLECULE
STL
 29 30 0 0 0
SMALL
GASTEIGER

@<TRIPOS>ATOM
      1 C           1.2470   -0.0150   -3.5120 C.ar    1  LIG1        0.1209
      2 C           0.1720   -0.0160   -4.3890 C.ar    1  LIG1        0.0213
      3 C          -1.1270   -0.0150   -3.9020 C.ar    1  LIG1        0.1209
      4 C          -1.3560   -0.0140   -2.5360 C.ar    1  LIG1       -0.0128
      5 C          -0.2770   -0.0130   -1.6490 C.ar    1  LIG1       -0.0181
      6 C           1.0280   -0.0080   -2.1450 C.ar    1  LIG1       -0.0128
      7 C          -0.5150   -0.0120   -0.1950 C.2     1  LIG1       -0.0538
      8 C           0.5230   -0.0120    0.6550 C.2     1  LIG1       -0.0540
      9 C           0.2840   -0.0110    2.1090 C.ar    1  LIG1       -0.0248
     10 C           1.3640   -0.0100    2.9970 C.ar    1  LIG1       -0.0511
     11 C           1.1360   -0.0090    4.3560 C.ar    1  LIG1       -0.0196
     12 C          -0.1640   -0.0070    4.8440 C.ar    1  LIG1        0.1169
     13 C          -1.2400   -0.0130    3.9660 C.ar    1  LIG1       -0.0196
     14 C          -1.0220   -0.0090    2.6050 C.ar    1  LIG1       -0.0511
     15 O          -0.3830   -0.0050    6.1850 O.3     1  LIG1       -0.5068
     16 O          -2.1760   -0.0150   -4.7660 O.3     1  LIG1       -0.5066
     17 O           2.5170   -0.0160   -3.9960 O.3     1  LIG1       -0.5066
     18 H           0.3393   -0.0175   -5.4074 H       1  LIG1        0.0691
     19 H          -2.3225   -0.0140   -2.1741 H       1  LIG1        0.0660
     20 H           1.8283    0.0009   -1.4935 H       1  LIG1        0.0660
     21 H          -1.4804   -0.0113    0.1697 H       1  LIG1        0.0624
     22 H           1.4885   -0.0127    0.2906 H       1  LIG1        0.0624
     23 H           2.3305   -0.0100    2.6352 H       1  LIG1        0.0625
     24 H           1.9326   -0.0097    5.0121 H       1  LIG1        0.0654
     25 H          -2.2044   -0.0205    4.3332 H       1  LIG1        0.0654
     26 H          -1.8223   -0.0045    1.9534 H       1  LIG1        0.0625
     27 H           0.3423   -0.0010    6.7782 H       1  LIG1        0.2921
     28 H          -2.0217   -0.0157   -5.6902 H       1  LIG1        0.2921
     29 H           2.6658   -0.0207   -4.9211 H       1  LIG1        0.2921
@<TRIPOS>BOND
     1     1     2   ar
     2     1     6   ar
     3     1    17    1
     4     2     3   ar
     5     3     4   ar
     6     3    16    1
     7     4     5   ar
     8     5     6   ar
     9     5     7    1
    10     7     8    2
    11     8     9    1
    12     9    10   ar
    13     9    14   ar
    14    10    11   ar
    15    11    12   ar
    16    12    13   ar
    17    12    15    1
    18    13    14   ar
    19     2    18    1
    20     4    19    1
    21     6    20    1
    22     7    21    1
    23     8    22    1
    24    10    23    1
    25    11    24    1
    26    13    25    1
    27    14    26    1
    28    15    27    1
    29    16    28    1
    30    17    29    1
