REMARK  5 active torsions:
REMARK  status: ('A' for Active; 'I' for Inactive)
REMARK    1  A    between atoms: C_1  and  O_17 
REMARK    2  A    between atoms: C_3  and  O_16 
REMARK    3  A    between atoms: C_5  and  C_7 
REMARK    4  A    between atoms: C_8  and  C_9 
REMARK    5  A    between atoms: C_12  and  O_15 
ROOT
ATOM      1  C   LIG d   1      -0.515  -0.012  -0.195  0.00  0.00    -0.072 C 
ATOM      2  C   LIG d   1       0.523  -0.012   0.655  0.00  0.00    -0.072 C 
ATOM      3  H   LIG d   1      -1.480  -0.011   0.170  0.00  0.00     0.084 H 
ATOM      4  H   LIG d   1       1.488  -0.013   0.291  0.00  0.00     0.084 H 
ENDROOT
BRANCH   1   5
ATOM      5  C   LIG d   1      -0.277  -0.013  -1.649  0.00  0.00    -0.031 A 
ATOM      6  C   LIG d   1      -1.356  -0.014  -2.536  0.00  0.00    -0.041 A 
ATOM      7  C   LIG d   1      -1.127  -0.015  -3.902  0.00  0.00     0.069 A 
ATOM      8  H   LIG d   1      -2.322  -0.014  -2.174  0.00  0.00     0.089 H 
ATOM      9  C   LIG d   1       0.172  -0.016  -4.389  0.00  0.00    -0.019 A 
ATOM     10  C   LIG d   1       1.247  -0.015  -3.512  0.00  0.00     0.069 A 
ATOM     11  H   LIG d   1       0.339  -0.018  -5.407  0.00  0.00     0.092 H 
ATOM     12  C   LIG d   1       1.028  -0.008  -2.145  0.00  0.00    -0.041 A 
ATOM     13  H   LIG d   1       1.828   0.001  -1.494  0.00  0.00     0.089 H 
BRANCH   7  14
ATOM     14  O   LIG d   1      -2.176  -0.015  -4.766  0.00  0.00    -0.361 OA
ATOM     15  H   LIG d   1      -2.022  -0.016  -5.690  0.00  0.00     0.217 HD
ENDBRANCH   7  14
BRANCH  10  16
ATOM     16  O   LIG d   1       2.517  -0.016  -3.996  0.00  0.00    -0.361 OA
ATOM     17  H   LIG d   1       2.666  -0.021  -4.921  0.00  0.00     0.217 HD
ENDBRANCH  10  16
ENDBRANCH   1   5
BRANCH   2  18
ATOM     18  C   LIG d   1       0.284  -0.011   2.109  0.00  0.00    -0.036 A 
ATOM     19  C   LIG d   1       1.364  -0.010   2.997  0.00  0.00    -0.070 A 
ATOM     20  C   LIG d   1       1.136  -0.009   4.356  0.00  0.00    -0.050 A 
ATOM     21  H   LIG d   1       2.330  -0.010   2.635  0.00  0.00     0.084 H 
ATOM     22  C   LIG d   1      -0.164  -0.007   4.844  0.00  0.00     0.065 A 
ATOM     23  H   LIG d   1       1.933  -0.010   5.012  0.00  0.00     0.087 H 
ATOM     24  C   LIG d   1      -1.240  -0.013   3.966  0.00  0.00    -0.050 A 
ATOM     25  C   LIG d   1      -1.022  -0.009   2.605  0.00  0.00    -0.070 A 
ATOM     26  H   LIG d   1      -2.204  -0.021   4.333  0.00  0.00     0.087 H 
ATOM     27  H   LIG d   1      -1.822  -0.004   1.953  0.00  0.00     0.084 H 
BRANCH  22  28
ATOM     28  O   LIG d   1      -0.383  -0.005   6.185  0.00  0.00    -0.361 OA
ATOM     29  H   LIG d   1       0.342  -0.001   6.778  0.00  0.00     0.217 HD
ENDBRANCH  22  28
ENDBRANCH   2  18
TORSDOF 5
