REMARK  5 active torsions:
REMARK  status: ('A' for Active; 'I' for Inactive)
REMARK    1  A    between atoms: C_3  and  C_4 
REMARK    2  A    between atoms: C_8  and  C_9 
REMARK    3  A    between atoms: C_8  and  C_10 
REMARK    4  A    between atoms: C_12  and  C_13 
REMARK    5  A    between atoms: C_16  and  O_17 
ROOT
ATOM      1  C   LIG d   1       1.135   0.313   1.565  0.00  0.00    -0.049 C 
ATOM      2  C   LIG d   1       0.996   1.252   0.363  0.00  0.00    -0.003 C 
ATOM      3  C   LIG d   1       2.371   1.606  -0.150  0.00  0.00    -0.081 C 
ATOM      4  C   LIG d   1       3.408   0.859   0.054  0.00  0.00    -0.100 C 
ATOM      5  C   LIG d   1       3.388  -0.417   0.842  0.00  0.00    -0.043 C 
ATOM      6  C   LIG d   1       1.967  -0.892   1.098  0.00  0.00    -0.021 C 
ATOM      7  C   LIG d   1       1.299  -1.561  -0.086  0.00  0.00     0.058 C 
ATOM      8  O   LIG d   1       0.870  -0.702  -1.106  0.00  0.00    -0.370 OA
ATOM      9  C   LIG d   1       0.265   0.512  -0.762  0.00  0.00     0.072 C 
ATOM     10  H   LIG d   1       0.169  -0.011   1.892  0.00  0.00     0.034 H 
ATOM     11  H   LIG d   1       1.609   0.810   2.386  0.00  0.00     0.034 H 
ATOM     12  H   LIG d   1       0.461   2.131   0.658  0.00  0.00     0.051 H 
ATOM     13  H   LIG d   1       4.307   1.161  -0.352  0.00  0.00     0.077 H 
ATOM     14  H   LIG d   1       3.874  -0.253   1.781  0.00  0.00     0.039 H 
ATOM     15  H   LIG d   1       3.896  -1.169   0.276  0.00  0.00     0.039 H 
ATOM     16  H   LIG d   1       2.022  -1.653   1.848  0.00  0.00     0.045 H 
ATOM     17  H   LIG d   1       0.347   1.109  -1.647  0.00  0.00     0.092 H 
ENDROOT
BRANCH   9  18
ATOM     18  C   LIG d   1      -1.203   0.382  -0.446  0.00  0.00    -0.029 A 
ATOM     19  C   LIG d   1      -1.900  -0.739  -0.859  0.00  0.00    -0.072 A 
ATOM     20  C   LIG d   1      -3.245  -0.863  -0.566  0.00  0.00    -0.050 A 
ATOM     21  H   LIG d   1      -1.416  -1.483  -1.386  0.00  0.00     0.084 H 
ATOM     22  C   LIG d   1      -3.897   0.142   0.134  0.00  0.00     0.065 A 
ATOM     23  H   LIG d   1      -3.764  -1.702  -0.868  0.00  0.00     0.087 H 
ATOM     24  C   LIG d   1      -3.196   1.267   0.542  0.00  0.00    -0.050 A 
ATOM     25  C   LIG d   1      -1.851   1.385   0.251  0.00  0.00    -0.072 A 
ATOM     26  H   LIG d   1      -3.679   2.016   1.063  0.00  0.00     0.087 H 
ATOM     27  H   LIG d   1      -1.329   2.222   0.554  0.00  0.00     0.084 H 
BRANCH  22  28
ATOM     28  O   LIG d   1      -5.221   0.024   0.419  0.00  0.00    -0.361 OA
ATOM     29  H   LIG d   1      -5.694  -0.737   0.143  0.00  0.00     0.217 HD
ENDBRANCH  22  28
ENDBRANCH   9  18
BRANCH   3  30
ATOM     30  C   LIG d   1       2.544   2.875  -0.943  0.00  0.00    -0.054 C 
ATOM     31  H   LIG d   1       1.602   3.377  -1.023  0.00  0.00     0.033 H 
ATOM     32  H   LIG d   1       2.906   2.638  -1.921  0.00  0.00     0.033 H 
ATOM     33  H   LIG d   1       3.246   3.512  -0.448  0.00  0.00     0.033 H 
ENDBRANCH   3  30
BRANCH   7  34
ATOM     34  C   LIG d   1       2.280  -2.578  -0.708  0.00  0.00    -0.048 C 
ATOM     35  H   LIG d   1       2.626  -3.250   0.050  0.00  0.00     0.031 H 
ATOM     36  H   LIG d   1       3.114  -2.057  -1.130  0.00  0.00     0.031 H 
ATOM     37  H   LIG d   1       1.780  -3.132  -1.475  0.00  0.00     0.031 H 
ENDBRANCH   7  34
BRANCH   7  38
ATOM     38  C   LIG d   1       0.116  -2.398   0.438  0.00  0.00    -0.048 C 
ATOM     39  H   LIG d   1       0.457  -3.049   1.216  0.00  0.00     0.031 H 
ATOM     40  H   LIG d   1      -0.291  -2.980  -0.362  0.00  0.00     0.031 H 
ATOM     41  H   LIG d   1      -0.639  -1.746   0.824  0.00  0.00     0.031 H 
ENDBRANCH   7  38
TORSDOF 5
