@<TRIPOS>MOLECULE
T3O
 41 43 0 0 0
SMALL
GASTEIGER

@<TRIPOS>ATOM
      1 C           1.1350    0.3130    1.5650 C.3     1  LIG1       -0.0381
      2 C           0.9960    1.2520    0.3630 C.3     1  LIG1        0.0106
      3 C           2.3710    1.6060   -0.1500 C.2     1  LIG1       -0.0707
      4 C           2.5440    2.8750   -0.9430 C.3     1  LIG1       -0.0434
      5 C           3.4080    0.8590    0.0540 C.2     1  LIG1       -0.0843
      6 C           3.3880   -0.4170    0.8420 C.3     1  LIG1       -0.0291
      7 C           1.9670   -0.8920    1.0980 C.3     1  LIG1       -0.0083
      8 C           1.2990   -1.5610   -0.0860 C.3     1  LIG1        0.0679
      9 C           2.2800   -2.5780   -0.7080 C.3     1  LIG1       -0.0358
     10 C           0.1160   -2.3980    0.4380 C.3     1  LIG1       -0.0358
     11 O           0.8700   -0.7020   -1.1060 O.3     1  LIG1       -0.3652
     12 C           0.2650    0.5120   -0.7620 C.3     1  LIG1        0.0908
     13 C          -1.2030    0.3820   -0.4460 C.ar    1  LIG1       -0.0181
     14 C          -1.9000   -0.7390   -0.8590 C.ar    1  LIG1       -0.0527
     15 C          -3.2450   -0.8630   -0.5660 C.ar    1  LIG1       -0.0198
     16 C          -3.8970    0.1420    0.1340 C.ar    1  LIG1        0.1169
     17 O          -5.2210    0.0240    0.4190 O.3     1  LIG1       -0.5068
     18 C          -3.1960    1.2670    0.5420 C.ar    1  LIG1       -0.0198
     19 C          -1.8510    1.3850    0.2510 C.ar    1  LIG1       -0.0527
     20 H           0.1692   -0.0115    1.8918 H       1  LIG1        0.0276
     21 H           1.6087    0.8099    2.3857 H       1  LIG1        0.0276
     22 H           0.4612    2.1306    0.6580 H       1  LIG1        0.0374
     23 H           1.6023    3.3766   -1.0233 H       1  LIG1        0.0274
     24 H           2.9063    2.6376   -1.9214 H       1  LIG1        0.0274
     25 H           3.2464    3.5122   -0.4475 H       1  LIG1        0.0274
     26 H           4.3074    1.1611   -0.3521 H       1  LIG1        0.0572
     27 H           3.8743   -0.2533    1.7810 H       1  LIG1        0.0311
     28 H           3.8962   -1.1691    0.2755 H       1  LIG1        0.0311
     29 H           2.0220   -1.6528    1.8484 H       1  LIG1        0.0331
     30 H           2.6256   -3.2496    0.0499 H       1  LIG1        0.0257
     31 H           3.1138   -2.0570   -1.1301 H       1  LIG1        0.0257
     32 H           1.7804   -3.1323   -1.4749 H       1  LIG1        0.0257
     33 H           0.4566   -3.0492    1.2157 H       1  LIG1        0.0257
     34 H          -0.2909   -2.9804   -0.3621 H       1  LIG1        0.0257
     35 H          -0.6391   -1.7456    0.8242 H       1  LIG1        0.0257
     36 H           0.3468    1.1086   -1.6465 H       1  LIG1        0.0652
     37 H          -1.4159   -1.4827   -1.3858 H       1  LIG1        0.0622
     38 H          -3.7640   -1.7025   -0.8677 H       1  LIG1        0.0654
     39 H          -5.6937   -0.7365    0.1429 H       1  LIG1        0.2921
     40 H          -3.6791    2.0156    1.0628 H       1  LIG1        0.0654
     41 H          -1.3294    2.2223    0.5540 H       1  LIG1        0.0622
@<TRIPOS>BOND
     1     1     2    1
     2     1     7    1
     3     2     3    1
     4     2    12    1
     5     3     4    1
     6     3     5    2
     7     5     6    1
     8     6     7    1
     9     7     8    1
    10     8     9    1
    11     8    10    1
    12     8    11    1
    13    11    12    1
    14    12    13    1
    15    13    14   ar
    16    13    19   ar
    17    14    15   ar
    18    15    16   ar
    19    16    17    1
    20    16    18   ar
    21    18    19   ar
    22     1    20    1
    23     1    21    1
    24     2    22    1
    25     4    23    1
    26     4    24    1
    27     4    25    1
    28     5    26    1
    29     6    27    1
    30     6    28    1
    31     7    29    1
    32     9    30    1
    33     9    31    1
    34     9    32    1
    35    10    33    1
    36    10    34    1
    37    10    35    1
    38    12    36    1
    39    14    37    1
    40    15    38    1
    41    17    39    1
    42    18    40    1
    43    19    41    1
