REMARK  3 active torsions:
REMARK  status: ('A' for Active; 'I' for Inactive)
REMARK    1  A    between atoms: C_2  and  O_3 
REMARK    2  A    between atoms: C_9  and  C_15 
REMARK    3  A    between atoms: C_18  and  O_19 
ROOT
ATOM      1  C   LIG d   1       2.238   0.070   0.289  0.00  0.00     0.013 A 
ATOM      2  C   LIG d   1       3.629   0.130   0.296  0.00  0.00     0.075 A 
ATOM      3  C   LIG d   1       4.281   1.285  -0.106  0.00  0.00    -0.050 A 
ATOM      4  C   LIG d   1       3.551   2.384  -0.516  0.00  0.00    -0.078 A 
ATOM      5  C   LIG d   1       2.172   2.329  -0.524  0.00  0.00    -0.050 A 
ATOM      6  C   LIG d   1       1.513   1.174  -0.116  0.00  0.00     0.079 A 
ATOM      7  O   LIG d   1       0.154   1.162  -0.133  0.00  0.00    -0.340 OA
ATOM      8  C   LIG d   1      -0.495   0.215   0.716  0.00  0.00     0.074 C 
ATOM      9  C   LIG d   1       0.066  -1.176   0.444  0.00  0.00    -0.017 C 
ATOM     10  C   LIG d   1       1.578  -1.208   0.735  0.00  0.00    -0.017 C 
ATOM     11  C   LIG d   1       2.114  -2.359  -0.144  0.00  0.00    -0.057 C 
ATOM     12  C   LIG d   1       1.104  -2.545  -1.290  0.00  0.00    -0.064 C 
ATOM     13  C   LIG d   1      -0.017  -1.495  -1.064  0.00  0.00    -0.058 C 
ATOM     14  H   LIG d   1       5.312   1.324  -0.099  0.00  0.00     0.087 H 
ATOM     15  H   LIG d   1       4.036   3.244  -0.816  0.00  0.00     0.083 H 
ATOM     16  H   LIG d   1       1.627   3.149  -0.834  0.00  0.00     0.087 H 
ATOM     17  H   LIG d   1      -0.323   0.475   1.740  0.00  0.00     0.092 H 
ATOM     18  H   LIG d   1      -0.492  -1.858   1.051  0.00  0.00     0.045 H 
ATOM     19  H   LIG d   1       1.773  -1.331   1.780  0.00  0.00     0.048 H 
ATOM     20  H   LIG d   1       2.189  -3.258   0.431  0.00  0.00     0.034 H 
ATOM     21  H   LIG d   1       3.089  -2.133  -0.522  0.00  0.00     0.034 H 
ATOM     22  H   LIG d   1       0.695  -3.534  -1.266  0.00  0.00     0.033 H 
ATOM     23  H   LIG d   1       1.572  -2.413  -2.243  0.00  0.00     0.033 H 
ATOM     24  H   LIG d   1       0.162  -0.617  -1.649  0.00  0.00     0.033 H 
ATOM     25  H   LIG d   1      -0.982  -1.854  -1.356  0.00  0.00     0.033 H 
ENDROOT
BRANCH   8  26
ATOM     26  C   LIG d   1      -1.976   0.224   0.439  0.00  0.00    -0.028 A 
ATOM     27  C   LIG d   1      -2.874   0.126   1.486  0.00  0.00    -0.072 A 
ATOM     28  C   LIG d   1      -4.233   0.139   1.235  0.00  0.00    -0.050 A 
ATOM     29  H   LIG d   1      -2.529   0.043   2.455  0.00  0.00     0.084 H 
ATOM     30  C   LIG d   1      -4.695   0.239  -0.069  0.00  0.00     0.065 A 
ATOM     31  H   LIG d   1      -4.903   0.074   2.017  0.00  0.00     0.087 H 
ATOM     32  C   LIG d   1      -3.791   0.331  -1.118  0.00  0.00    -0.050 A 
ATOM     33  C   LIG d   1      -2.434   0.323  -0.862  0.00  0.00    -0.072 A 
ATOM     34  H   LIG d   1      -4.133   0.405  -2.089  0.00  0.00     0.087 H 
ATOM     35  H   LIG d   1      -1.762   0.391  -1.642  0.00  0.00     0.084 H 
BRANCH  30  36
ATOM     36  O   LIG d   1      -6.031   0.246  -0.319  0.00  0.00    -0.361 OA
ATOM     37  H   LIG d   1      -6.342   0.314  -1.200  0.00  0.00     0.217 HD
ENDBRANCH  30  36
ENDBRANCH   8  26
BRANCH   2  38
ATOM     38  O   LIG d   1       4.350  -0.949   0.698  0.00  0.00    -0.360 OA
ATOM     39  H   LIG d   1       3.911  -1.731   0.970  0.00  0.00     0.217 HD
ENDBRANCH   2  38
TORSDOF 3
