@<TRIPOS>MOLECULE
WST
 39 42 0 0 0
SMALL
GASTEIGER

@<TRIPOS>ATOM
      1 C           2.2380    0.0700    0.2890 C.ar    1  LIG1        0.0391
      2 C           3.6290    0.1300    0.2960 C.ar    1  LIG1        0.1238
      3 O           4.3500   -0.9490    0.6980 O.3     1  LIG1       -0.5064
      4 C           4.2810    1.2850   -0.1060 C.ar    1  LIG1       -0.0197
      5 C           3.5510    2.3840   -0.5160 C.ar    1  LIG1       -0.0548
      6 C           2.1720    2.3290   -0.5240 C.ar    1  LIG1       -0.0194
      7 C           1.5130    1.1740   -0.1160 C.ar    1  LIG1        0.1283
      8 O           0.1540    1.1620   -0.1330 O.3     1  LIG1       -0.4835
      9 C          -0.4950    0.2150    0.7160 C.3     1  LIG1        0.1285
     10 C           0.0660   -1.1760    0.4440 C.3     1  LIG1        0.0073
     11 C           1.5780   -1.2080    0.7350 C.3     1  LIG1       -0.0024
     12 C           2.1140   -2.3590   -0.1440 C.3     1  LIG1       -0.0456
     13 C           1.1040   -2.5450   -1.2900 C.3     1  LIG1       -0.0521
     14 C          -0.0170   -1.4950   -1.0640 C.3     1  LIG1       -0.0459
     15 C          -1.9760    0.2240    0.4390 C.ar    1  LIG1       -0.0069
     16 C          -2.4340    0.3230   -0.8620 C.ar    1  LIG1       -0.0516
     17 C          -3.7910    0.3310   -1.1180 C.ar    1  LIG1       -0.0198
     18 C          -4.6950    0.2390   -0.0690 C.ar    1  LIG1        0.1169
     19 O          -6.0310    0.2460   -0.3190 O.3     1  LIG1       -0.5068
     20 C          -4.2330    0.1390    1.2350 C.ar    1  LIG1       -0.0198
     21 C          -2.8740    0.1260    1.4860 C.ar    1  LIG1       -0.0516
     22 H           3.9110   -1.7308    0.9702 H       1  LIG1        0.2921
     23 H           5.3122    1.3242   -0.0991 H       1  LIG1        0.0654
     24 H           4.0359    3.2443   -0.8157 H       1  LIG1        0.0620
     25 H           1.6272    3.1487   -0.8342 H       1  LIG1        0.0654
     26 H          -0.3234    0.4753    1.7396 H       1  LIG1        0.0787
     27 H          -0.4916   -1.8583    1.0510 H       1  LIG1        0.0346
     28 H           1.7727   -1.3310    1.7799 H       1  LIG1        0.0355
     29 H           2.1894   -3.2582    0.4310 H       1  LIG1        0.0271
     30 H           3.0891   -2.1333   -0.5223 H       1  LIG1        0.0271
     31 H           0.6951   -3.5335   -1.2656 H       1  LIG1        0.0266
     32 H           1.5716   -2.4128   -2.2433 H       1  LIG1        0.0266
     33 H           0.1615   -0.6168   -1.6486 H       1  LIG1        0.0269
     34 H          -0.9817   -1.8543   -1.3557 H       1  LIG1        0.0269
     35 H          -1.7615    0.3909   -1.6419 H       1  LIG1        0.0623
     36 H          -4.1327    0.4054   -2.0889 H       1  LIG1        0.0654
     37 H          -6.3424    0.3136   -1.2002 H       1  LIG1        0.2921
     38 H          -4.9033    0.0744    2.0170 H       1  LIG1        0.0654
     39 H          -2.5292    0.0431    2.4552 H       1  LIG1        0.0623
@<TRIPOS>BOND
     1     1    11    1
     2     1     2   ar
     3     1     7   ar
     4     2     3    1
     5     2     4   ar
     6     4     5   ar
     7     5     6   ar
     8     6     7   ar
     9     7     8    1
    10     8     9    1
    11     9    10    1
    12     9    15    1
    13    10    14    1
    14    10    11    1
    15    11    12    1
    16    12    13    1
    17    13    14    1
    18    15    21   ar
    19    15    16   ar
    20    16    17   ar
    21    17    18   ar
    22    18    19    1
    23    18    20   ar
    24    20    21   ar
    25     3    22    1
    26     4    23    1
    27     5    24    1
    28     6    25    1
    29     9    26    1
    30    10    27    1
    31    11    28    1
    32    12    29    1
    33    12    30    1
    34    13    31    1
    35    13    32    1
    36    14    33    1
    37    14    34    1
    38    16    35    1
    39    17    36    1
    40    19    37    1
    41    20    38    1
    42    21    39    1
