@<TRIPOS>MOLECULE
ZTW
 27 29 0 0 0
SMALL
GASTEIGER

@<TRIPOS>ATOM
      1 C          -1.6980    0.3660   -2.8810 C.ar    1  LIG1       -0.0501
      2 C          -1.2880    0.2850   -4.1740 C.ar    1  LIG1       -0.0196
      3 C           0.0380    0.0100   -4.4990 C.ar    1  LIG1        0.1180
      4 O           0.4230   -0.0650   -5.8010 O.3     1  LIG1       -0.5067
      5 C           0.9610   -0.1850   -3.4850 C.ar    1  LIG1       -0.0059
      6 C           0.5530   -0.1050   -2.1710 C.ar    1  LIG1        0.0234
      7 S           1.3760   -0.2820   -0.6090 S.2     1  LIG1       -0.0881
      8 C          -0.0120    0.0020    0.4700 C.ar    1  LIG1        0.0205
      9 C          -0.0380    0.0010    1.9480 C.ar    1  LIG1       -0.0110
     10 C           1.0130    0.5730    2.6660 C.ar    1  LIG1       -0.0501
     11 C           0.9850    0.5710    4.0450 C.ar    1  LIG1       -0.0196
     12 C          -0.0870    0.0020    4.7180 C.ar    1  LIG1        0.1169
     13 O          -0.1110    0.0020    6.0770 O.3     1  LIG1       -0.5068
     14 C          -1.1330   -0.5710    4.0070 C.ar    1  LIG1       -0.0196
     15 C          -1.1140   -0.5690    2.6290 C.ar    1  LIG1       -0.0501
     16 C          -0.7850    0.1710   -1.8160 C.ar    1  LIG1       -0.0100
     17 C          -1.0390    0.2130   -0.3860 C.ar    1  LIG1       -0.0392
     18 H          -2.6874    0.5723   -2.6724 H       1  LIG1        0.0625
     19 H          -1.9738    0.4304   -4.9313 H       1  LIG1        0.0654
     20 H          -0.2050    0.0676   -6.4836 H       1  LIG1        0.2921
     21 H           1.9470   -0.3887   -3.7117 H       1  LIG1        0.0665
     22 H           1.8100    0.9969    2.1659 H       1  LIG1        0.0625
     23 H           1.7621    0.9931    4.5769 H       1  LIG1        0.0654
     24 H           0.5942    0.3883    6.5580 H       1  LIG1        0.2921
     25 H          -1.9255   -0.9988    4.5110 H       1  LIG1        0.0654
     26 H          -1.8951   -0.9888    2.1012 H       1  LIG1        0.0625
     27 H          -1.9886    0.4010   -0.0282 H       1  LIG1        0.0635
@<TRIPOS>BOND
     1     1     2   ar
     2     1    16   ar
     3     2     3   ar
     4     3     4    1
     5     3     5   ar
     6     5     6   ar
     7     6     7   ar
     8     6    16   ar
     9     7     8   ar
    10     8     9    1
    11     8    17   ar
    12     9    10   ar
    13     9    15   ar
    14    10    11   ar
    15    11    12   ar
    16    12    13    1
    17    12    14   ar
    18    14    15   ar
    19    16    17   ar
    20     1    18    1
    21     2    19    1
    22     4    20    1
    23     5    21    1
    24    10    22    1
    25    11    23    1
    26    13    24    1
    27    14    25    1
    28    15    26    1
    29    17    27    1
