REMARK  3 active torsions:
REMARK  status: ('A' for Active; 'I' for Inactive)
REMARK    1  A    between atoms: C_3  and  O_4 
REMARK    2  A    between atoms: C_8  and  C_9 
REMARK    3  A    between atoms: C_12  and  O_13 
ROOT
ATOM      1  C   LIG d   1      -1.698   0.366  -2.881  0.00  0.00    -0.069 A 
ATOM      2  C   LIG d   1      -1.288   0.285  -4.174  0.00  0.00    -0.050 A 
ATOM      3  C   LIG d   1       0.038   0.010  -4.499  0.00  0.00     0.067 A 
ATOM      4  C   LIG d   1       0.961  -0.185  -3.485  0.00  0.00    -0.034 A 
ATOM      5  C   LIG d   1       0.553  -0.105  -2.171  0.00  0.00     0.018 A 
ATOM      6  S   LIG d   1       1.376  -0.282  -0.609  0.00  0.00    -0.089 SA
ATOM      7  C   LIG d   1      -0.012   0.002   0.470  0.00  0.00     0.016 A 
ATOM      8  C   LIG d   1      -0.785   0.171  -1.816  0.00  0.00    -0.018 A 
ATOM      9  C   LIG d   1      -1.039   0.213  -0.386  0.00  0.00    -0.054 A 
ATOM     10  H   LIG d   1      -2.687   0.572  -2.672  0.00  0.00     0.085 H 
ATOM     11  H   LIG d   1      -1.974   0.430  -4.931  0.00  0.00     0.087 H 
ATOM     12  H   LIG d   1       1.947  -0.389  -3.712  0.00  0.00     0.089 H 
ATOM     13  H   LIG d   1      -1.989   0.401  -0.028  0.00  0.00     0.086 H 
ENDROOT
BRANCH   7  14
ATOM     14  C   LIG d   1      -0.038   0.001   1.948  0.00  0.00    -0.019 A 
ATOM     15  C   LIG d   1       1.013   0.573   2.666  0.00  0.00    -0.069 A 
ATOM     16  C   LIG d   1       0.985   0.571   4.045  0.00  0.00    -0.050 A 
ATOM     17  H   LIG d   1       1.810   0.997   2.166  0.00  0.00     0.085 H 
ATOM     18  C   LIG d   1      -0.087   0.002   4.718  0.00  0.00     0.065 A 
ATOM     19  H   LIG d   1       1.762   0.993   4.577  0.00  0.00     0.087 H 
ATOM     20  C   LIG d   1      -1.133  -0.571   4.007  0.00  0.00    -0.050 A 
ATOM     21  C   LIG d   1      -1.114  -0.569   2.629  0.00  0.00    -0.069 A 
ATOM     22  H   LIG d   1      -1.925  -0.999   4.511  0.00  0.00     0.087 H 
ATOM     23  H   LIG d   1      -1.895  -0.989   2.101  0.00  0.00     0.085 H 
BRANCH  18  24
ATOM     24  O   LIG d   1      -0.111   0.002   6.077  0.00  0.00    -0.361 OA
ATOM     25  H   LIG d   1       0.594   0.388   6.558  0.00  0.00     0.217 HD
ENDBRANCH  18  24
ENDBRANCH   7  14
BRANCH   3  26
ATOM     26  O   LIG d   1       0.423  -0.065  -5.801  0.00  0.00    -0.361 OA
ATOM     27  H   LIG d   1      -0.205   0.068  -6.484  0.00  0.00     0.217 HD
ENDBRANCH   3  26
TORSDOF 3
